%Chk=BLIND01006
%Mem=1GB
%NProcShared=48
#T M05/Gen test Massage SCF=(fermi,maxcyc=60)

M05 opt

0 1
  6        -0.05656944       -0.68123505        0.75751410
  6        -0.36627216        0.64851395        1.15960672
 16         1.06043678       -1.11592404       -0.52773266
 16         0.30825802        2.09790792        0.39878186
  6         0.82590469        0.24993450       -1.63387335
  6         0.52899646        1.52356771       -1.26326842
  6        -0.71157275       -1.57833455        1.57695682
  7        -1.17666090        0.79684415        2.17898313
 16        -1.61403037       -0.69792089        2.76660744
  6         1.02577262       -0.09711274       -3.00160895
  7         1.22196168       -0.42251397       -4.10016114
  6         0.40750213        2.56205361       -2.23317981
  7         0.32791708        3.44447294       -2.98546198
  6        -0.67559006       -2.99336610        1.53746755
  7        -0.65049326       -4.15540120        1.52561523
  6        -0.81141614       -0.31720336        7.81248234
  6        -1.06204407        0.83883393        8.60405677
 16         0.73619637       -0.73457913        7.09192033
 16         0.16845129        2.04121374        9.02209061
  6         1.84574937       -0.07861344        8.30959157
  6         1.61828093        1.02314861        9.07249559
  6        -1.98465038       -1.02297699        7.63724473
  7        -2.29109518        1.03252003        9.01609936
 16        -3.27176051       -0.18179762        8.43761423
  6         3.06971444       -0.80314922        8.39929692
  7         4.06036639       -1.41093775        8.41916778
  6         2.60019967        1.49581740        9.99247480
  7         3.38227424        1.93315152       10.73276147
  6        -2.18962462       -2.22138153        6.91131046
  7        -2.37795704       -3.19959205        6.31236891

@blind-aug.gbs/N

