%Chk=BLIND01330
%Mem=1GB
%NProcShared=48
#T M05/Gen test Massage SCF=(fermi,maxcyc=60)

M05 opt

0 1
  6        -0.09124236        0.85372259       -0.55130888
  6        -0.89441547       -0.22168994       -1.02483556
 16         1.45489596        0.67898212        0.26566033
 16        -0.47503356       -1.93140747       -0.83622720
  6         1.19255117       -0.84779528        1.12835846
  6         0.42768402       -1.88162797        0.68811733
  6        -0.67621387        2.05595320       -0.89446062
  7        -1.99433233        0.08513436       -1.66818753
 16        -2.13138949        1.74018646       -1.78191870
  6         1.91442724       -0.92875200        2.35450307
  7         2.54017535       -0.95764409        3.33368517
  6         0.32067412       -3.08902211        1.43957606
  7         0.22794976       -4.10095549        2.00377387
  6        -0.21013987        3.36705463       -0.63186494
  7         0.16199740        4.45017667       -0.43322852
  6         0.87750927       -0.51396155        8.59976218
  6         0.92500476        0.55000152        7.65554112
 16        -0.11843997       -0.53882622       10.04751337
 16        -0.04785232        2.02462292        7.77228507
  6        -1.52516378        0.38344083        9.48655553
  6        -1.49372462        1.40036367        8.58515465
  6         1.78491898       -1.49128272        8.24373667
  7         1.76916520        0.43493098        6.65954315
 16         2.61620357       -0.99039890        6.80745401
  6        -2.74094269       -0.01248985       10.11600784
  7        -3.70223702       -0.35409534       10.67315406
  6        -2.68024431        2.11073752        8.23661201
  7        -3.61596835        2.73554173        7.94512213
  6         2.07075323       -2.70921866        8.90713645
  7         2.32476113       -3.70866449        9.44349822

@blind-aug.gbs/N

