%Chk=BLIND02370_mA
%Mem=1GB
%NProcShared=48
#T M05/Gen test Massage SCF=(fermi,maxcyc=60)

M05 opt

0 1
  6         0.15624861        0.86359407       -0.52048108
  6        -0.40218220       -0.18431395       -1.30525523
 16         1.23135588        0.63821253        0.85132946
 16        -0.12559977       -1.90659301       -1.00219530
  6         0.61377011       -0.89372299        1.49621970
  6         0.07744061       -1.90151284        0.75841598
  6        -0.21714427        2.08499600       -1.04398687
  7        -1.13852162        0.15935372       -2.33363105
 16        -1.18886853        1.81879886       -2.45456037
  6         0.77113955       -1.01047676        2.90784751
  7         0.94239943       -1.06921242        4.05606927
  6        -0.34749430       -3.11651342        1.37253800
  7        -0.67964570       -4.13380136        1.82610918
  6         0.12365629        3.38002287       -0.58362959
  7         0.40089162        4.45045361       -0.22527988

@blind-aug.gbs/N

