%Chk=BLIND02191
%Mem=1GB
%NProcShared=48
#T M05/Gen test Massage SCF=(fermi,maxcyc=60)

M05 opt

0 1
  6        -0.50356529        0.17067208        0.87086276
  6         0.21489342        1.30305686        0.39405206
 16        -0.03557077       -1.50450240        0.61929123
 16         1.69738993        1.20441462       -0.56878860
  6         0.73362554       -1.38817556       -0.97410990
  6         1.42129769       -0.31300754       -1.44183289
  6        -1.58402256        0.58880500        1.62124944
  7        -0.24006352        2.48764054        0.72213088
 16        -1.58845423        2.32110984        1.68391406
  6         0.60742194       -2.58041298       -1.74465013
  7         0.49879163       -3.58170761       -2.32499618
  6         2.04424839       -0.34001125       -2.72446501
  7         2.59178982       -0.32821656       -3.74964080
  6        -2.55067674       -0.20280432        2.28765984
  7        -3.34729177       -0.83692331        2.84836790
  6         0.95689871        0.27416658        4.52080360
  6         0.20007154        1.30179643        5.15089580
 16         0.73830797       -1.44974418        4.78322773
 16        -1.12152139        1.00407531        6.29078289
  6        -1.00922620       -1.51171500        5.07717673
  6        -1.74369271       -0.53752389        5.67647188
  6         1.93537811        0.83845292        3.72741706
  7         0.53258450        2.54225704        4.88907023
 16         1.84010417        2.56425920        3.85910659
  6        -1.60404879       -2.73690467        4.65743153
  7        -2.03896902       -3.76112042        4.32124780
  6        -3.14054186       -0.70761821        5.90846826
  7        -4.27372118       -0.81491438        6.14366665
  6         2.91135515        0.18476292        2.93664108
  7         3.72503139       -0.33503594        2.28946565

@blind-aug.gbs/N

