%Chk=BLIND01095_mB
%Mem=1GB
%NProcShared=48
#T M05/Gen test Massage SCF=(fermi,maxcyc=60)

M05 opt

0 1
  6        -0.64785249       -0.66569436        8.01073754
  6        -0.33690746        0.44094010        7.17139254
 16         0.43367862       -1.36425887        9.20690421
 16         1.19728121        1.32325198        7.22016959
  6         1.32154479        0.08169489        9.72171823
  6         1.62395370        1.14522957        8.93109387
  6        -1.90013415       -1.15168054        7.69307217
  7        -1.23677955        0.79957518        6.28851592
 16        -2.55002498       -0.21879511        6.38456415
  6         1.75204733        0.02020187       11.07891233
  7         2.10180751       -0.08623773       12.18233040
  6         2.38648917        2.24099628        9.43286764
  7         3.02931710        3.14088473        9.79049756
  6        -2.59115495       -2.24493392        8.26966193
  7        -3.16894660       -3.14491784        8.72494390

@blind-aug.gbs/N

