%Chk=BLIND01901
%Mem=1GB
%NProcShared=48
#T M05/Gen test Massage SCF=(fermi,maxcyc=60)

M05 opt

0 1
  6        -0.28907997       -0.92300897        0.32495556
  6         0.73683541       -0.33338634        1.11594825
 16        -1.53358607       -0.03645684       -0.54323021
 16         0.94618445        1.41166879        1.32935843
  6        -0.64149861        1.43493518       -0.97137453
  6         0.34046426        2.00747444       -0.22599424
  6        -0.20127920       -2.29842760        0.40123036
  7         1.55136259       -1.14285222        1.74774765
 16         1.11017404       -2.72066970        1.45319451
  6        -1.08457741        2.02266296       -2.19176254
  7        -1.49605976        2.47731550       -3.17926767
  6         0.96394901        3.22168088       -0.63940856
  7         1.47858953        4.22468126       -0.92235999
  6        -1.02687653       -3.26776614       -0.21839878
  7        -1.69993182       -4.07699166       -0.71159910
  6        -0.28881650       -0.92308635        9.92497005
  6         0.73690212       -0.33314118       10.71597742
 16        -1.53355977       -0.03692330        9.05672706
 16         0.94572951        1.41198098       10.92935061
  6        -0.64189490        1.43472169        8.62857191
  6         0.33987756        2.00756938        9.37396604
  6        -0.20061153       -2.29847710       10.00128119
  7         1.55165045       -1.14235083       11.34781990
 16         1.11093647       -2.72030583       11.05329304
  6        -1.08511259        2.02228851        7.40815683
  7        -1.49670116        2.47679517        6.42062881
  6         0.96301532        3.22194981        8.96053958
  7         1.47736753        4.22509523        8.67757811
  6        -1.02590481       -3.26807476        9.38165242
  7        -1.69870695       -4.07751123        8.88845288

@blind-aug.gbs/N

