%Chk=BLIND00533
%Mem=1GB
%NProcShared=48
#T M05/Gen test Massage SCF=(fermi,maxcyc=60)

M05 opt

0 1
  6        -0.22616936       -0.82348750       -0.55841264
  6        -0.81625718       -0.83082314        0.73679746
 16         0.13008831        0.61679355       -1.50031901
 16        -1.26269845        0.62981730        1.63223480
  6         0.51562935        1.76265649       -0.20321519
  6        -0.03941378        1.76602037        1.03757482
  6        -0.04213204       -2.12098549       -0.99192438
  7        -1.07090150       -1.99766713        1.27669690
 16        -0.63513034       -3.20845464        0.22075466
  6         1.46324830        2.75257586       -0.59458154
  7         2.22002664        3.55230075       -0.96730084
  6         0.30705468        2.76444425        1.99520278
  7         0.53744441        3.57454462        2.79619223
  6         0.50086936       -2.56867347       -2.22070157
  7         0.93541119       -2.95390000       -3.22761261
  6        -0.93708534        0.02212925        7.35901041
  6        -0.19278016        1.21583473        7.57558296
 16        -0.77124865       -1.03535496        5.96518762
 16         1.05842886        1.81822565        6.47731637
  6         0.95606618       -0.83922502        5.61584737
  6         1.67852662        0.29413192        5.81881782
  6        -1.85856063       -0.14078322        8.37372516
  7        -0.48309439        1.92249051        8.64057841
 16        -1.73230001        1.19754961        9.46814285
  6         1.54537320       -2.00095990        5.03776524
  7         1.97499485       -2.96328396        4.54730558
  6         3.05670140        0.36186938        5.45827951
  7         4.17287494        0.47148808        5.15321148
  6        -2.80467890       -1.18059331        8.54350044
  7        -3.59355649       -2.02094362        8.69376490

@blind-aug.gbs/N

