%Chk=BLIND02617
%Mem=1GB
%NProcShared=48
#T M05/Gen test Massage SCF=(fermi,maxcyc=60)

M05 opt

0 1
  6        -0.34479795       -0.73055983        0.62330219
  6        -0.26620800        0.55259481        1.23417408
 16        -0.65848638       -1.02279249       -1.08102063
 16        -0.44236043        2.08114795        0.35834078
  6         0.12262338        0.39725980       -1.80035444
  6         0.20551536        1.62718424       -1.22759024
  6        -0.20846777       -1.71146633        1.58483208
  7        -0.08487680        0.59255681        2.53162622
 16        -0.02542761       -0.95769258        3.13504110
  6         0.64163250        0.14979240       -3.10437862
  7         1.02722012       -0.09360544       -4.17361793
  6         0.81600981        2.71812972       -1.91394032
  7         1.27785500        3.64173804       -2.44739399
  6        -0.23677696       -3.11721763        1.41681328
  7        -0.26665231       -4.27318736        1.29875664
  6         0.31248435        0.60306107       13.49467893
  6         0.63706194        1.10017378       14.78826116
 16         0.18037092       -1.09643560       13.06715846
 16         0.93237498        0.07397393       16.20045534
  6        -0.42577806       -1.76616926       14.59299014
  6        -0.12465274       -1.30059368       15.83404089
  6         0.18761601        1.65587569       12.61077142
  7         0.75450918        2.39858162       14.92318067
 16         0.50675961        3.13740015       13.45223396
  6        -1.25569538       -2.91040749       14.41120516
  7        -1.90648008       -3.85312551       14.21383485
  6        -0.62932568       -1.94340174       17.00282015
  7        -0.99377565       -2.45233407       17.98215168
  6        -0.11411808        1.61174491       11.22795637
  7        -0.35157603        1.59372520       10.09024598

@blind-aug.gbs/N

