%Chk=BLIND00853
%Mem=1GB
%NProcShared=48
#T M05/Gen test Massage SCF=(fermi,maxcyc=60)

M05 opt

0 1
  6        -0.49693316        0.86148914       -0.22804123
  6         0.75011862        0.72522019       -0.90043940
 16        -1.53685994       -0.47002631        0.25583431
 16         1.47883841       -0.82880164       -1.33468815
  6        -0.32374341       -1.71380301        0.61007981
  6         0.87068936       -1.85426463       -0.02335918
  6        -0.79926431        2.19986948       -0.07758470
  7         1.37318577        1.82591207       -1.24413219
 16         0.46195595        3.14571243       -0.79836979
  6        -0.73579317       -2.62376410        1.62658139
  7        -1.12546527       -3.35404063        2.44269711
  6         1.75695937       -2.92166487        0.30698022
  7         2.49641015       -3.79202140        0.52289269
  6        -1.94294400        2.78078803        0.52216427
  7        -2.87919946        3.27466864        1.00237627
  6         0.86466204       -0.37824776        8.56791440
  6        -0.00611817        0.17806911        9.54673002
 16         0.34945478       -1.13561492        7.06809004
 16        -1.76935327        0.22581049        9.39405033
  6        -1.10414261       -0.18530890        6.71018620
  6        -1.94309684        0.35212590        7.63482866
  6         2.17031477       -0.29680144        9.00830135
  7         0.53998439        0.65179219       10.63999049
 16         2.18841521        0.42738537       10.58311956
  6        -1.36121713       -0.06048498        5.31396940
  7        -1.54202389       -0.00644244        4.16698146
  6        -3.11532844        1.06172222        7.23949579
  7        -4.09581584        1.62172969        6.96388332
  6         3.34714434       -0.73889411        8.35653860
  7         4.32244806       -1.10406597        7.84027503

@blind-aug.gbs/N

