%Chk=BLIND00485_mB
%Mem=1GB
%NProcShared=48
#T M05/Gen test Massage SCF=(fermi,maxcyc=60)

M05 opt

0 1
  6        -0.13709329       -1.01057574        6.54137368
  6        -1.31571745       -0.28358335        6.21250622
 16         1.50196856       -0.51261425        6.14891061
 16        -1.31845179        1.27494875        5.37253088
  6         1.33584202        1.24989626        6.24931349
  6         0.21641970        1.95595809        5.93945155
  6        -0.48060698       -2.20004554        7.15167128
  7        -2.46645609       -0.82689296        6.52631392
 16        -2.20853025       -2.31179945        7.23302734
  6         2.53565641        1.90265730        6.65605434
  7         3.54335221        2.39104466        6.96785555
  6         0.20278033        3.38033597        6.00947696
  7         0.15512529        4.54155992        6.02410759
  6         0.37493983       -3.22310452        7.62765282
  7         1.06176852       -4.07688203        8.01550100

@blind-aug.gbs/N

