%Chk=BLIND00247_mB
%Mem=1GB
%NProcShared=48
#T M05/Gen test Massage SCF=(fermi,maxcyc=60)

M05 opt

0 1
  6         0.53530919       -0.82672291        5.07695941
  6         1.33106375        0.21715299        5.62734513
 16        -1.14012398       -1.15107023        5.49676788
 16         0.74398819        1.39161686        6.81501733
  6        -1.71301186        0.49371637        5.82933153
  6        -0.96372039        1.49948402        6.35339047
  6         1.30003619       -1.58918736        4.21722469
  7         2.58423765        0.28329677        5.24913859
 16         2.91600604       -0.96228081        4.19586601
  6        -3.09504485        0.67546786        5.53261471
  7        -4.22973901        0.76828398        5.29799297
  6        -1.53602343        2.77679466        6.62704846
  7        -1.96696731        3.82294434        6.89310178
  6         0.91141852       -2.72691566        3.46908094
  7         0.61236641       -3.66752502        2.85514464

@blind-aug.gbs/N

