%Chk=BLIND01924_mB
%Mem=1GB
%NProcShared=48
#T M05/Gen test Massage SCF=(fermi,maxcyc=60)

M05 opt

0 1
  6         0.27818637       -0.55028223       10.94458585
  6         1.37459158       -0.09570587       11.73013190
 16        -1.32271558       -0.92793713       11.56346093
 16         1.29197937        0.19671260       13.47433802
  6        -1.44088658        0.24496354       12.88802188
  6        -0.40230745        0.68796700       13.64482132
  6         0.68298877       -0.71779589        9.63562542
  7         2.52068636        0.08249717       11.11974640
 16         2.36723131       -0.32635584        9.51344392
  6        -2.77687766        0.67334210       13.13844013
  7        -3.88483057        0.97436051       13.32015769
  6        -0.61326432        1.59967786       14.72102876
  7        -0.74227125        2.31879258       15.62499633
  6        -0.08058603       -1.16326954        8.52942688
  7        -0.68974829       -1.53599013        7.61231368

@blind-aug.gbs/N

