%Chk=BLIND00748
%Mem=1GB
%NProcShared=48
#T M05/Gen test Massage SCF=(fermi,maxcyc=60)

M05 opt

0 1
  6        -0.84254334       -0.41411545        0.39967239
  6        -0.85292817        1.00914065        0.39186996
 16        -0.02619981       -1.42693214       -0.78197995
 16        -0.00776307        2.00118336       -0.80651877
  6         1.36823480       -0.40425302       -1.17415543
  6         1.37200414        0.95498466       -1.18429383
  6        -1.62973455       -0.87831325        1.43415469
  7        -1.56263391        1.61193591        1.31426666
 16        -2.31808826        0.47628042        2.26846382
  6         2.52570315       -1.15194680       -1.53790078
  7         3.43586057       -1.80408991       -1.85017608
  6         2.53815636        1.68410454       -1.56167312
  7         3.45521356        2.31822674       -1.89003459
  6        -1.90524288       -2.21939209        1.79577763
  7        -2.14963785       -3.31400138        2.10106032
  6        -0.66385255        0.42388876        6.55092624
  6        -0.85361655        0.82083272        5.19731929
 16        -0.03399887       -1.13228461        7.07066218
 16        -0.45061084       -0.19012709        3.80084695
  6         1.08697872       -1.48567710        5.74301573
  6         0.91828617       -1.11180197        4.44709742
  6        -1.11623738        1.41873721        7.39409154
  7        -1.39158263        1.99675441        4.98363565
 16        -1.74869368        2.72022421        6.43965077
  6         2.20787784       -2.26610456        6.14996509
  7         3.09102329       -2.92257173        6.52452884
  6         1.85969208       -1.48937435        3.44453273
  7         2.58485693       -1.79878888        2.59052763
  6        -1.12735205        1.43342636        8.81001143
  7        -1.15279808        1.45875631        9.97182330

@blind-aug.gbs/N

