%Chk=BLIND02384
%Mem=1GB
%NProcShared=48
#T M05/Gen test Massage SCF=(fermi,maxcyc=60)

M05 opt

0 1
  6         0.83399367        0.38712852        0.44237425
  6         0.21098900        1.27475366       -0.47947902
 16         0.82212961       -1.36632082        0.32493800
 16        -0.71508460        0.74765831       -1.89339080
  6        -0.76481386       -1.62836898       -0.42142871
  6        -1.37114675       -0.78877543       -1.30181905
  6         1.50896259        1.11376221        1.40243865
  7         0.36695317        2.56039398       -0.27782546
 16         1.33008855        2.80319073        1.05796527
  6        -1.36321034       -2.86548930       -0.04387790
  7        -1.79965836       -3.89472718        0.27451737
  6        -2.63176988       -1.11746717       -1.88210604
  7        -3.64353870       -1.35780830       -2.40122658
  6         2.27004409        0.63275194        2.49539452
  7         2.90612099        0.25563477        3.39221375
  6        -0.83399370       -0.38712852        4.30743580
  6        -0.21098911       -1.27475357        5.22928921
 16        -0.82212950        1.36632084        4.42487180
 16         0.71508454       -0.74765809        6.64320091
  6         0.76481400        1.62836898        5.17123848
  6         1.37114681        0.78877550        6.05162894
  6        -1.50896268       -1.11376229        3.34737151
  7        -0.36695338       -2.56039391        5.02763583
 16        -1.33008878       -2.80319077        3.69184514
  6         1.36321057        2.86548920        4.79368749
  7         1.79965868        3.89472699        4.47529207
  6         2.63176997        1.11746723        6.63191588
  7         3.64353880        1.35780835        7.15103639
  6        -2.27004414       -0.63275212        2.25441557
  7        -2.90612101       -0.25563503        1.35759628

@blind-aug.gbs/N

