%Chk=BLIND01688
%Mem=1GB
%NProcShared=48
#T M05/Gen test Massage SCF=(fermi,maxcyc=60)

M05 opt

0 1
  6         0.58591435       -0.21548771       -0.80708013
  6        -0.22822180       -1.30371363       -0.38426417
 16         0.16732735        1.48382618       -0.64697434
 16        -1.79949586       -1.11753954        0.41010688
  6        -0.77228696        1.44380007        0.85623720
  6        -1.55237066        0.41120613        1.27200541
  6         1.72115254       -0.69835322       -1.42625568
  7         0.20703516       -2.51465301       -0.63333691
 16         1.65657444       -2.43046466       -1.44737935
  6        -0.67728573        2.65101826        1.60769490
  7        -0.58773208        3.66291326        2.17270965
  6        -2.30720567        0.49963517        2.47879717
  7        -2.96128463        0.53900776        3.43877459
  6         2.78721908        0.03404539       -2.00267813
  7         3.66619521        0.61906841       -2.48872848
  6         0.57632092       -0.23996822        4.48936985
  6        -0.28291610       -1.29294736        4.91218581
 16         0.22965982        1.47546433        4.64947568
 16        -1.84495712       -1.04077528        5.70655690
  6        -0.71080651        1.47503893        6.15268724
  6        -1.53367874        0.47620854        6.56845545
  6         1.69021974       -0.77020801        3.87019428
  7         0.10096463       -2.52114049        4.66311304
 16         1.55276325       -2.49806393        3.84907057
  6        -0.56505603        2.67718607        6.90414496
  7        -0.43297297        3.68441265        7.46915973
  6        -2.28412067        0.59634369        7.77524723
  7        -2.93596159        0.66322326        8.73522466
  6         2.78618055       -0.08334886        3.29377182
  7         3.68901120        0.46414341        2.80772146

@blind-aug.gbs/N

