%Chk=BLIND01341
%Mem=1GB
%NProcShared=48
#T M05/Gen test Massage SCF=(fermi,maxcyc=60)

M05 opt

0 1
  6         0.27677297        0.77845550       -0.59875926
  6         0.08494923       -0.44408271       -1.30191688
 16         0.82256726        0.91364595        1.06627791
 16         0.33789125       -2.04672738       -0.59329940
  6         0.10896562       -0.55422048        1.75928795
  6        -0.08068740       -1.72707812        1.09892385
  6         0.03802196        1.84276924       -1.44465372
  7        -0.26900695       -0.36600131       -2.56147170
 16        -0.36939484        1.23245010       -3.01511501
  6        -0.22480576       -0.41686522        3.13799019
  7        -0.45785676       -0.26445263        4.26655151
  6        -0.62136075       -2.86651750        1.76472575
  7        -1.03096551       -3.82767884        2.27395944
  6         0.12397268        3.22748743       -1.16121687
  7         0.19850050        4.36786254       -0.94888190
  6        -0.40706067        0.87116192        7.26793442
  6        -1.35776976       -0.01708215        6.69087171
 16         1.06123228        0.38104171        8.10004897
 16        -1.19605817       -1.78015831        6.69051988
  6         1.46515355       -1.09218562        7.19973184
  6         0.56763528       -1.94790620        6.64309255
  6        -0.84886342        2.17236703        7.13763166
  7        -2.43207213        0.51248646        6.15862033
 16        -2.39148159        2.16590296        6.34699016
  6         2.86644814       -1.34503319        7.14030781
  7         4.01541958       -1.52126170        7.13923049
  6         0.99756385       -3.13412720        5.97827445
  7         1.30073644       -4.12582260        5.45334327
  6        -0.22128397        3.36230640        7.57962349
  7         0.27501114        4.34832686        7.94369866

@blind-aug.gbs/N

