%Chk=BLIND00247_mA
%Mem=1GB
%NProcShared=48
#T M05/Gen test Massage SCF=(fermi,maxcyc=60)

M05 opt

0 1
  6        -0.65657662       -0.78102489        0.00402174
  6         0.40435846       -0.92064880        0.94250380
 16        -1.34878234        0.74649186       -0.52139284
 16         1.22941825        0.44073279        1.71742627
  6         0.08143943        1.79176180       -0.44394280
  6         1.10153795        1.66873790        0.44594943
  6        -1.10688525       -2.02912382       -0.37647057
  7         0.76235986       -2.13792314        1.27104329
 16        -0.20130702       -3.23730165        0.47503454
  6         0.05613507        2.84643416       -1.40212627
  7        -0.02079127        3.70294338       -2.18421790
  6         2.18630527        2.59457093        0.45336483
  7         3.07443512        3.34181853        0.51478566
  6        -2.15025898       -2.34997491       -1.27846519
  7        -3.00959147       -2.63157989       -2.00876802

@blind-aug.gbs/N

