%Chk=BLIND00114_mA
%Mem=1GB
%NProcShared=48
#T M05/Gen test Massage SCF=(fermi,maxcyc=60)

M05 opt

0 1
  6         0.47228559       -0.23130837       -0.87438645
  6        -0.29512574       -1.30317317       -0.33771862
 16         0.10259141        1.47558695       -0.67855180
 16        -1.74630153       -1.08595951        0.65298587
  6        -0.63302401        1.46273790        0.93477610
  6        -1.36680243        0.44590807        1.45943826
  6         1.50985148       -0.73692366       -1.63142899
  7         0.08646405       -2.52277270       -0.62896805
 16         1.41826353       -2.46793768       -1.62607395
  6        -0.42336522        2.67457043        1.65491134
  7        -0.24626627        3.68963691        2.19293460
  6        -1.95613403        0.55614415        2.75345457
  7        -2.47853685        0.61370236        3.79013604
  6         2.50183927       -0.02603140       -2.34959392
  7         3.31805769        0.54117233       -2.95222427

@blind-aug.gbs/N

