%Chk=BLIND01484_mA
%Mem=1GB
%NProcShared=48
#T M05/Gen test Massage SCF=(fermi,maxcyc=60)

M05 opt

0 1
  6        -0.09012926       -0.54575890       -0.85739888
  6        -0.62091539       -1.19510536        0.29257586
 16        -0.04123941        1.19334417       -1.10568684
 16        -1.29691168       -0.34338699        1.68978493
  6         0.17274683        1.75111489        0.56381123
  6        -0.32759331        1.14020377        1.67019787
  6         0.31487004       -1.49070498       -1.77846115
  7        -0.63531486       -2.50569776        0.29208342
 16        -0.02190254       -3.07021663       -1.14873602
  6         0.90585169        2.96971157        0.65691899
  7         1.48742107        3.97590436        0.68028881
  6        -0.13710378        1.69936018        2.96827328
  7        -0.03148436        2.13383947        4.04111922
  6         0.88605019       -1.28338539       -3.05749996
  7         1.34726985       -1.13180218       -4.11362252

@blind-aug.gbs/N

