%Chk=BLIND01978
%Mem=1GB
%NProcShared=48
#T M05/Gen test Massage SCF=(fermi,maxcyc=60)

M05 opt

0 1
  6        -0.34574970       -0.29914718       -0.91218256
  6         0.40768730       -1.29611463       -0.23084912
 16        -0.09984392        1.43448566       -0.76196881
 16         1.70939787       -0.94494805        0.91667864
  6         0.42827204        1.53965483        0.92745566
  6         1.14679918        0.59493177        1.58992162
  6        -1.25069640       -0.90168762       -1.76266460
  7         0.13453183       -2.54889640       -0.50248110
 16        -1.06340748       -2.62167830       -1.65598061
  6         0.06266257        2.76713542        1.55252427
  7        -0.23691811        3.79229819        2.01131152
  6         1.56293551        0.79943050        2.93860719
  7         1.94784028        0.93572175        4.02681633
  6        -2.18367556       -0.28672208       -2.63245522
  7        -2.94888344        0.20107957       -3.35881764
  6        -0.34574969        0.29914718        4.88808744
  6         0.40768730        1.29611463        5.56942088
 16        -0.09984392       -1.43448566        5.03830119
 16         1.70939788        0.94494805        6.71694864
  6         0.42827203       -1.53965483        6.72772566
  6         1.14679917       -0.59493178        7.39019162
  6        -1.25069639        0.90168762        4.03760539
  7         0.13453184        2.54889641        5.29778890
 16        -1.06340746        2.62167830        4.14428940
  6         0.06266256       -2.76713542        7.35279427
  7        -0.23691812       -3.79229819        7.81158152
  6         1.56293550       -0.79943051        8.73887719
  7         1.94784026       -0.93572176        9.82708634
  6        -2.18367555        0.28672209        3.16781477
  7        -2.94888343       -0.20107956        2.44145236

@blind-aug.gbs/N

