%Chk=BLIND00308_mA
%Mem=1GB
%NProcShared=48
#T M05/Gen test Massage SCF=(fermi,maxcyc=60)

M05 opt

0 1
  6        -0.40353653       -0.80509060        0.47968355
  6        -0.36533769        0.37469227        1.27496959
 16        -0.57341157       -0.84193643       -1.26911647
 16        -0.45181730        2.01690719        0.61904294
  6         0.27947319        0.64968948       -1.70702263
  6         0.32471082        1.78220570       -0.95668628
  6        -0.35891665       -1.91698129        1.29639119
  7        -0.29498380        0.22342482        2.57498056
 16        -0.30174063       -1.39849254        2.94948734
  6         0.90549418        0.58146421       -2.98551107
  7         1.37859509        0.48633292       -4.04301690
  6         1.00171541        2.94717358       -1.42407966
  7         1.51600961        3.92778097       -1.77740211
  6        -0.38594646       -3.28292826        0.92406511
  7        -0.41646075       -4.40891990        0.63717206

@blind-aug.gbs/N

