%Chk=BLIND01505
%Mem=1GB
%NProcShared=48
#T M05/Gen test Massage SCF=(fermi,maxcyc=60)

M05 opt

0 1
  6        -0.37037517        0.64136578       -0.70184120
  6        -0.34418531       -0.71720888       -1.12541604
 16        -0.58145615        1.18044503        0.95748246
 16        -0.48992310       -2.10102369       -0.03069901
  6         0.22082348       -0.13884393        1.82923134
  6         0.25421126       -1.43940012        1.43542567
  6        -0.27661419        1.47188997       -1.80035914
  7        -0.23843693       -0.94576654       -2.41166590
 16        -0.19321810        0.50088827       -3.23389580
  6         0.81733055        0.28098080        3.05357450
  7         1.26707160        0.66613647        4.05386501
  6         0.88865384       -2.43407694        2.23670126
  7         1.36812715       -3.28179905        2.87105030
  6        -0.27648827        2.88751206       -1.83474721
  7        -0.28412769        4.04887091       -1.88252975
  6         0.18518674       -0.71710098        9.50131888
  6         0.52360187        0.59891057        9.07774426
 16         0.24426950       -1.29300965       11.16064255
 16         1.03442634        1.89322143       10.17246161
  6        -0.17560250        0.19288530       12.03239125
  6         0.14034756        1.45492209       11.63858579
  6        -0.12745845       -1.49222299        8.40280075
  7         0.48289080        0.84743400        7.79149438
 16         0.05209693       -0.53432975        6.96926421
  6        -0.86271846       -0.05195358       13.25673402
  7        -1.39914382       -0.30267325       14.25702424
  6        -0.20470039        2.58312487       12.43986123
  7        -0.43976900        3.52825466       13.07421016
  6        -0.50649874       -2.85615640        8.36841243
  7        -0.80999849       -3.97718299        8.32062969

@blind-aug.gbs/N

