%Chk=BLIND01708
%Mem=1GB
%NProcShared=48
#T M05/Gen test Massage SCF=(fermi,maxcyc=60)

M05 opt

0 1
  6         0.33306438       -0.36204901       -0.89392256
  6        -0.47572639       -1.28232746       -0.16951127
 16         0.17998944        1.38755902       -0.83102235
 16        -1.76157125       -0.80564941        0.95029647
  6        -0.34890433        1.60442352        0.84747794
  6        -1.11994957        0.73344975        1.55071188
  6         1.20795559       -1.05350522       -1.70740698
  7        -0.26909787       -2.55983906       -0.37718596
 16         0.92810389       -2.75362413       -1.51739304
  6         0.07944044        2.84009195        1.41381171
  7         0.43169387        3.86926522        1.82358351
  6        -1.53024053        1.02650343        2.88477440
  7        -1.91189960        1.23694871        3.96226002
  6         2.17631289       -0.53314919       -2.59997752
  7         2.96970193       -0.12354349       -3.34419047
  6         0.87979472        0.24526185        5.45532892
  6         0.57232980        1.05832664        6.58236824
 16         0.40575855       -1.43574810        5.26036249
 16        -0.37657730        0.50953963        7.97269067
  6        -1.14684816       -1.43393748        6.11682685
  6        -1.45356998       -0.66226664        7.19297270
  6         1.66723188        0.95547678        4.57167702
  7         1.05475203        2.27690615        6.59625336
 16         1.96775406        2.53152946        5.22785607
  6        -2.07570025       -2.37956069        5.59326194
  7        -2.78967745       -3.18086798        5.14679111
  6        -2.71992828       -0.77245030        7.83960871
  7        -3.72688943       -0.84932917        8.41497383
  6         2.20633722        0.52694278        3.33438462
  7         2.66453489        0.18904227        2.32098734

@blind-aug.gbs/N

