%Chk=BLIND00299
%Mem=1GB
%NProcShared=48
#T M05/Gen test Massage SCF=(fermi,maxcyc=60)

M05 opt

0 1
  6        -0.36295335        0.88155164       -0.36364884
  6        -0.15235352       -0.10722802       -1.36554163
 16        -0.79505309        0.55297655        1.30783100
 16        -0.26191068       -1.85071705       -1.07773690
  6         0.04904965       -0.98549709        1.56221559
  6         0.25770946       -1.93725981        0.61445356
  6        -0.24657346        2.13902874       -0.92088334
  7         0.10553306        0.31104390       -2.58061493
 16         0.08165974        1.97512344       -2.61505706
  6         0.47220881       -1.17530814        2.90980519
  7         0.77631306       -1.29505240        4.02532074
  6         0.90888804       -3.16465065        0.93604355
  7         1.40815475       -4.19023426        1.15928588
  6        -0.39104694        3.39770186       -0.28839790
  7        -0.51526382        4.43930406        0.21233249
  6        -0.24226684       -0.87690693        8.04504014
  6        -1.33174178       -0.27300466        7.35643789
 16         1.44745877       -0.74375537        7.58069686
 16        -1.15485792        0.74882364        5.92145796
  6         1.46383296        0.88913380        6.88966362
  6         0.43065469        1.47772349        6.23106747
  6        -0.72027987       -1.64114421        9.09038607
  7        -2.53901565       -0.52264262        7.80144431
 16        -2.45174637       -1.55907407        9.10110227
  6         2.71652580        1.55041389        7.04637650
  7         3.76300914        2.03918244        7.17741449
  6         0.56404995        2.78225039        5.67039179
  7         0.63734245        3.83011445        5.17286264
  6         0.01408138       -2.41731162       10.01960410
  7         0.60012245       -3.06689278       10.78491195

@blind-aug.gbs/N

