%Chk=BLIND01399
%Mem=1GB
%NProcShared=48
#T M05/Gen test Massage SCF=(fermi,maxcyc=60)

M05 opt

0 1
  6         0.22361907        0.57338642       -0.81383747
  6         0.42382624       -0.82011993       -1.02332204
 16        -0.98009092        1.27314894        0.25851104
 16        -0.49795303       -2.08955277       -0.20268109
  6        -1.03646830        0.03771201        1.52919560
  6        -0.84615501       -1.29522318        1.34289297
  6         1.06960827        1.29227203       -1.63408681
  7         1.32658769       -1.17361733       -1.90532056
 16         1.99918969        0.18575821       -2.59133919
  6        -1.35540983        0.56921659        2.81249948
  7        -1.64138891        1.04575213        3.83344163
  6        -0.96030365       -2.21294097        2.42857528
  7        -1.07212911       -2.99924320        3.27719180
  6         1.19203979        2.69778205       -1.75541509
  7         1.29940550        3.84901167       -1.87474184
  6         0.61016029        0.55975806        6.74772500
  6        -0.05934068        1.31535495        7.75105369
 16         1.08970840       -1.12410933        6.89984618
 16        -0.55150678        0.66307243        9.32168680
  6        -0.21513729       -1.73864738        7.93127372
  6        -0.86310622       -1.02779878        8.89172913
  6         0.88914331        1.36981039        5.66546491
  7        -0.29132572        2.58042827        7.49879895
 16         0.32573867        2.97386959        6.00368947
  6        -0.51545950       -3.11164024        7.69508131
  7        -0.70786985       -4.23823140        7.48303503
  6        -1.86947226       -1.63291338        9.70105332
  7        -2.67425720       -2.09233497       10.40260812
  6         1.55085816        1.03010482        4.46051593
  7         2.10007963        0.77129928        3.46931899

@blind-aug.gbs/N

