%Chk=BLIND02316
%Mem=1GB
%NProcShared=48
#T M05/Gen test Massage SCF=(fermi,maxcyc=60)

M05 opt

0 1
  6         1.00517782        0.08354009        0.15410226
  6         0.38983388        1.29281106       -0.27583054
 16         0.46868574       -1.53378342       -0.27596464
 16        -1.05256334        1.36273246       -1.30013010
  6        -1.28106125       -1.27191635       -0.39400355
  6        -1.88124528       -0.12250713       -0.80177996
  6         2.12886779        0.37463438        0.90102139
  7         0.95381244        2.41867622        0.08778443
 16         2.32531568        2.09536388        0.97399257
  6        -2.04375644       -2.42719923       -0.05531904
  7        -2.62138913       -3.40125757        0.20687143
  6        -3.30062968       -0.03151271       -0.90670800
  7        -4.45060418        0.07833790       -1.03483928
  6         3.03762853       -0.52508015        1.50916293
  7         3.79866105       -1.24899069        2.00703736
  6        -0.98535449        0.23517967        6.87649298
  6        -0.70993881       -1.15596038        6.75524022
 16        -0.09042859        1.35987733        7.88776913
 16         0.61537521       -1.98166716        7.58970975
  6         1.53238682        0.65073066        7.80000112
  6         1.80902305       -0.67496269        7.68315256
  6        -2.10556500        0.55285380        6.13520034
  7        -1.51395069       -1.86635555        6.00240317
 16        -2.71548050       -0.88942519        5.39178865
  6         2.57261259        1.61852451        7.91133433
  7         3.38512666        2.44128273        8.03000542
  6         3.15485541       -1.14663201        7.66882639
  7         4.23409474       -1.57789513        7.68226946
  6        -2.73185980        1.81395758        5.98506525
  7        -3.26421290        2.83940703        5.85798450

@blind-aug.gbs/N

