%Chk=BLIND00980
%Mem=1GB
%NProcShared=48
#T M05/Gen test Massage SCF=(fermi,maxcyc=60)

M05 opt

0 1
  6        -0.59183652       -0.82181200        0.12435221
  6         0.58176666       -0.83482516        0.92953100
 16        -1.45316064        0.62246835       -0.38622752
 16         1.39132663        0.62181612        1.52735803
  6        -0.10513824        1.76421889       -0.53907848
  6         1.02096173        1.76216034        0.22219590
  6        -0.99127790       -2.11742120       -0.13477444
  7         1.06562352       -2.00404058        1.27111244
 16         0.09695988       -3.21026314        0.65659248
  6        -0.32343539        2.75709276       -1.53789652
  7        -0.55700241        3.55939641       -2.34594870
  6         2.02738028        2.75764710        0.04878959
  7         2.85882229        3.56519470       -0.03779667
  6        -2.10909947       -2.55974650       -0.88310038
  7        -3.02695114       -2.94059538       -1.48609155
  6         0.96444703        0.33096364        6.11647197
  6         0.25572812        0.49337253        7.34005994
 16         0.68090927       -0.94750974        4.94445286
 16        -1.06396799       -0.56119277        7.87004348
  6        -1.06437123       -1.18758322        5.14565623
  6        -1.75319528       -1.03488355        6.30748595
  6         1.95564486        1.28712484        6.02381218
  7         0.63402479        1.46747541        8.13118271
 16         1.92998980        2.26418501        7.45542728
  6        -1.71164949       -1.61589171        3.95038541
  7        -2.19031141       -1.98642659        2.95802475
  6        -3.15303222       -1.29979468        6.37245186
  7        -4.28690771       -1.53220789        6.47845470
  6         2.89631647        1.48026787        4.98313877
  7         3.68168512        1.64758480        4.14272397

@blind-aug.gbs/N

