%Chk=BLIND01328
%Mem=1GB
%NProcShared=48
#T M05/Gen test Massage SCF=(fermi,maxcyc=60)

M05 opt

0 1
  6         0.46144391       -0.90851856       -0.05265397
  6         0.99816044       -0.05142112        0.94891780
 16        -0.26109298       -0.37276609       -1.56243089
 16         0.99537794        1.71617895        0.84806851
  6        -0.98384002        1.16210719       -1.04675385
  6        -0.48242393        1.98893071       -0.09145870
  6         0.65904331       -2.22582914        0.30921695
  7         1.55636279       -0.61748103        1.99095730
 16         1.50327779       -2.27268704        1.82245818
  6        -2.16107151        1.49906407       -1.77591483
  7        -3.10232147        1.74211399       -2.41322816
  6        -1.11807433        3.22810423        0.21568865
  7        -1.58573411        4.25933050        0.47797256
  6         0.29341317       -3.39636829       -0.39882339
  7         0.00894502       -4.36760110       -0.97055814
  6         0.30585033        0.90235867        7.51627574
  6         0.53330815        0.74318879        6.12029775
 16        -1.00760818        0.16155964        8.41880561
 16        -0.46439163       -0.26517437        5.06086996
  6        -1.19250151       -1.36024650        7.52771493
  6        -0.97760370       -1.52595073        6.19579710
  6         1.23060387        1.78336151        8.03969536
  7         1.52583500        1.41566018        5.59064436
 16         2.26112102        2.34148306        6.76244782
  6        -1.64771288       -2.43537363        8.34501164
  7        -2.04216130       -3.27429472        9.04630678
  6        -1.20180267       -2.78578120        5.56611150
  7        -1.39921319       -3.78509876        5.00636189
  6         1.35889688        2.23174415        9.37673027
  7         1.47313308        2.61752490       10.46724356

@blind-aug.gbs/N

