%Chk=BLIND02089
%Mem=1GB
%NProcShared=48
#T M05/Gen test Massage SCF=(fermi,maxcyc=60)

M05 opt

0 1
  6         0.83679870       -0.27202061       -0.51660588
  6         0.32388055       -1.29987664        0.32378308
 16         0.70644882        1.45206450       -0.20187411
 16        -0.56727240       -1.00244310        1.82443895
  6        -0.85684781        1.50974801        0.63293027
  6        -1.35857814        0.53529792        1.43689404
  6         1.51401291       -0.83592776       -1.57900546
  7         0.56054813       -2.54017315       -0.02766118
 16         1.47228413       -2.56157828       -1.42021142
  6        -1.55907202        2.73179151        0.42178933
  7        -2.08233689        3.75361127        0.23938519
  6        -2.60957113        0.70195456        2.10111091
  7        -3.60934888        0.80661369        2.68456360
  6         2.18497821       -0.18186944       -2.64069360
  7         2.74831311        0.33827573       -3.51430605
  6         0.83679869        0.27202061        4.18352412
  6         0.32388055        1.29987664        5.02391308
 16         0.70644882       -1.45206449        4.49825589
 16        -0.56727241        1.00244310        6.52456895
  6        -0.85684781       -1.50974801        5.33306027
  6        -1.35857814       -0.53529792        6.13702404
  6         1.51401290        0.83592776        3.12112454
  7         0.56054812        2.54017315        4.67246882
 16         1.47228412        2.56157828        3.27991858
  6        -1.55907202       -2.73179151        5.12191933
  7        -2.08233688       -3.75361128        4.93951520
  6        -2.60957113       -0.70195456        6.80124091
  7        -3.60934888       -0.80661370        7.38469360
  6         2.18497821        0.18186944        2.05943640
  7         2.74831311       -0.33827572        1.18582394

@blind-aug.gbs/N

