%Chk=BLIND01727
%Mem=1GB
%NProcShared=48
#T M05/Gen test Massage SCF=(fermi,maxcyc=60)

M05 opt

0 1
  6        -0.24702294        0.90936710        0.39133113
  6        -1.08338261        0.50414078       -0.68668593
 16         0.54269025       -0.17794993        1.52385547
 16        -1.44160967       -1.18341814       -1.08468923
  6         0.84738867       -1.57262963        0.47211906
  6         0.05786084       -1.96956929       -0.56070656
  6        -0.20802303        2.28763888        0.45574479
  7        -1.64444909        1.44810070       -1.40223054
 16        -1.21958986        2.93774325       -0.79282377
  6         2.01391951       -2.30501424        0.83805383
  7         2.95953450       -2.88275091        1.18908895
  6         0.36907238       -3.13787838       -1.31710803
  7         0.56780309       -4.09813912       -1.94107241
  6         0.48951651        3.10525846        1.37775631
  7         1.04786015        3.79160896        2.13159401
  6         0.55483700       -0.38787410       10.73689450
  6         1.30784403       -0.12671589       11.91613301
 16        -1.14440075       -0.83473269       10.69914422
 16         0.63724629       -0.17949678       13.55384519
  6        -1.74375164        0.05876254       12.10860045
  6        -1.03517947        0.31581872       13.23974661
  6         1.37895667       -0.30690083        9.63255157
  7         2.58375910        0.13563536       11.77096905
 16         2.99066775        0.05383977       10.15893564
  6        -3.10278251        0.46680863       11.97584820
  7        -4.21903373        0.75712312       11.83130155
  6        -1.62878758        1.00452893       14.33849571
  7        -2.08013927        1.53591417       15.26846212
  6         1.04595463       -0.50558286        8.27063985
  7         0.79251613       -0.67429473        7.14885504

@blind-aug.gbs/N

