%Chk=BLIND00184
%Mem=1GB
%NProcShared=48
#T M05/Gen test Massage SCF=(fermi,maxcyc=60)

M05 opt

0 1
  6        -0.62771288       -0.45572205       -0.66287469
  6        -0.33239744       -1.24746645        0.48244459
 16        -0.69415535        1.30023231       -0.68982511
 16         0.05180662       -0.58129150        2.07718172
  6         0.54269729        1.68791602        0.52014140
  6         0.83523802        0.94040160        1.61708541
  6        -0.92403368       -1.27770036       -1.73144798
  7        -0.38340046       -2.54985995        0.34449571
 16        -0.83497049       -2.92913205       -1.21215264
  6         1.20627488        2.92327051        0.26587041
  7         1.70199563        3.94782893        0.02978987
  6         1.81938707        1.36761064        2.55670502
  7         2.59179205        1.69076257        3.36286226
  6        -1.28288436       -0.90944247       -3.05083449
  7        -1.58785247       -0.62533233       -4.13590214
  6         0.24784283       -0.97467533        8.52224369
  6         0.10294848       -0.20274498        9.70923813
 16        -0.63046186       -0.70289503        7.02450105
 16        -0.97576137        1.19307026        9.85981440
  6        -0.81083612        1.06042454        7.07236829
  6        -0.94890053        1.80929416        8.19832414
  6         1.12947896       -2.01243612        8.74823814
  7         0.79089131       -0.57767508       10.75996270
 16         1.66498209       -1.94665558       10.39558021
  6        -0.84617348        1.65454612        5.77743181
  7        -0.89338838        2.08992589        4.70067361
  6        -1.13581045        3.22119318        8.12384073
  7        -1.31927744        4.36882675        8.10958651
  6         1.54948816       -3.02111117        7.84749658
  7         1.89797436       -3.86184492        7.12443362

@blind-aug.gbs/N

