%Chk=BLIND02175
%Mem=1GB
%NProcShared=48
#T M05/Gen test Massage SCF=(fermi,maxcyc=60)

M05 opt

0 1
  6         0.66869593        0.26604299       -0.72330892
  6         0.61107959       -1.13603213       -0.48520729
 16         0.36840729        1.51044805        0.48076724
 16         0.19099438       -1.86137449        1.07427827
  6        -0.84914906        0.70084776        1.48387541
  6        -0.91603738       -0.63637931        1.71838291
  6         1.06592370        0.49990473       -2.02439385
  7         0.92252231       -1.92988205       -1.48052923
 16         1.35121039       -1.02024616       -2.80706832
  6        -1.76783016        1.60690129        2.08900489
  7        -2.47787415        2.38621977        2.57858967
  6        -1.91076878       -1.18239133        2.58228235
  7        -2.68495595       -1.66727301        3.30092699
  6         1.26311994        1.74288796       -2.67345068
  7         1.43879408        2.75402397       -3.21919649
  6         0.66869580       -0.26604299        9.77126096
  6         0.61107951        1.13603213       10.00936260
 16         0.36840737       -1.51044805       10.97533718
 16         0.19099457        1.86137449       11.56884823
  6        -0.84914879       -0.70084776       11.97844556
  6        -0.91603707        0.63637931       12.21295307
  6         1.06592335       -0.49990473        8.47017596
  7         0.92252205        1.92988205        9.01404061
 16         1.35120990        1.02024616        7.68750144
  6        -1.76782979       -1.60690129       12.58357520
  7        -2.47787370       -2.38621977       13.07316010
  6        -1.91076832        1.18239133       13.07685269
  7        -2.68495537        1.66727301       13.79549746
  6         1.26311947       -1.74288796        7.82111910
  7         1.43879351       -2.75402397        7.27537326

@blind-aug.gbs/N

