%Chk=BLIND00485
%Mem=1GB
%NProcShared=48
#T M05/Gen test Massage SCF=(fermi,maxcyc=60)

M05 opt

0 1
  6        -0.53357031       -0.84785104       -0.19380465
  6        -1.33345912        0.24264203        0.24984994
 16         0.95651075       -0.70167470       -1.11402612
 16        -0.93417215        1.94465716       -0.02997638
  6         1.58890036        0.82163447       -0.46307709
  6         0.83652351        1.86974054       -0.03523739
  6        -1.14278573       -2.03884737        0.14632408
  7        -2.44966959       -0.04333421        0.87447126
 16        -2.64059593       -1.69530115        0.94842580
  6         3.01276583        0.88241562       -0.46463035
  7         4.17429999        0.89450187       -0.50805099
  6         1.44719635        3.07240687        0.42802744
  7         1.90091223        4.08095211        0.78566486
  6        -0.69885668       -3.35850962       -0.11172046
  7        -0.35442607       -4.44837287       -0.32305328
  6        -0.13709329       -1.01057574        6.54137368
  6        -1.31571745       -0.28358335        6.21250622
 16         1.50196856       -0.51261425        6.14891061
 16        -1.31845179        1.27494875        5.37253088
  6         1.33584202        1.24989626        6.24931349
  6         0.21641970        1.95595809        5.93945155
  6        -0.48060698       -2.20004554        7.15167128
  7        -2.46645609       -0.82689296        6.52631392
 16        -2.20853025       -2.31179945        7.23302734
  6         2.53565641        1.90265730        6.65605434
  7         3.54335221        2.39104466        6.96785555
  6         0.20278033        3.38033597        6.00947696
  7         0.15512529        4.54155992        6.02410759
  6         0.37493983       -3.22310452        7.62765282
  7         1.06176852       -4.07688203        8.01550100

@blind-aug.gbs/N

