%Chk=BLIND02542
%Mem=1GB
%NProcShared=48
#T M05/Gen test Massage SCF=(fermi,maxcyc=60)

M05 opt

0 1
  6         0.89144539       -0.32964967       -0.37116724
  6         0.21626382       -1.29033411        0.43322192
 16         0.79033582        1.41283183       -0.16610207
 16        -0.87316329       -0.87846760        1.76667716
  6        -0.87518440        1.57188133        0.42115233
  6        -1.53163261        0.66205977        1.18857954
  6         1.69327470       -0.97542678       -1.29059364
  7         0.44866423       -2.55586254        0.18364654
 16         1.55433604       -2.68698739       -1.05377538
  6        -1.48527553        2.80412248        0.04637210
  7        -1.93139843        3.83189883       -0.26321337
  6        -2.85867935        0.90935675        1.64872417
  7        -3.92823900        1.08146310        2.06985088
  6         2.54122944       -0.40563158       -2.27114177
  7         3.24929021        0.04482260       -3.07540347
  6         0.77343834       -0.58389927       10.01806743
  6         1.16104887        0.74219858       10.36019200
 16        -0.55140789       -1.47314740       10.75463844
 16         0.34032649        1.73358155       11.57598924
  6        -1.67431124       -0.14635245       11.10510286
  6        -1.31754691        1.12392987       11.43182304
  6         1.64022315       -1.09107160        9.07109143
  7         2.21255659        1.23808230        9.75497230
 16         2.85056173        0.09963467        8.72162660
  6        -3.04206884       -0.54412536       11.05921694
  7        -4.14126483       -0.92132884       11.03316409
  6        -2.30260383        2.10731794       11.74255238
  7        -3.06890972        2.93215644       12.03124402
  6         1.62889043       -2.37057785        8.46454072
  7         1.64033565       -3.41934461        7.96348863

@blind-aug.gbs/N

