%Chk=BLIND00485_mA
%Mem=1GB
%NProcShared=48
#T M05/Gen test Massage SCF=(fermi,maxcyc=60)

M05 opt

0 1
  6        -0.53357031       -0.84785104       -0.19380465
  6        -1.33345912        0.24264203        0.24984994
 16         0.95651075       -0.70167470       -1.11402612
 16        -0.93417215        1.94465716       -0.02997638
  6         1.58890036        0.82163447       -0.46307709
  6         0.83652351        1.86974054       -0.03523739
  6        -1.14278573       -2.03884737        0.14632408
  7        -2.44966959       -0.04333421        0.87447126
 16        -2.64059593       -1.69530115        0.94842580
  6         3.01276583        0.88241562       -0.46463035
  7         4.17429999        0.89450187       -0.50805099
  6         1.44719635        3.07240687        0.42802744
  7         1.90091223        4.08095211        0.78566486
  6        -0.69885668       -3.35850962       -0.11172046
  7        -0.35442607       -4.44837287       -0.32305328

@blind-aug.gbs/N

