%Chk=BLIND02446
%Mem=1GB
%NProcShared=48
#T M05/Gen test Massage SCF=(fermi,maxcyc=60)

M05 opt

0 1
  6         0.28701900       -0.92005273        0.33501042
  6        -0.46069556       -0.17201138        1.28747235
 16         1.34296096       -0.23149157       -0.88948407
 16        -0.47232027        1.59638470        1.37249303
  6         0.49134759        1.28534305       -1.23312559
  6        -0.22659888        2.00855924       -0.33359502
  6         0.11278142       -2.26991328        0.56483856
  7        -1.15409334       -0.84524403        2.17280695
 16        -0.92558908       -2.47718742        1.93730010
  6         0.66254460        1.73126481       -2.57585975
  7         0.85055150        2.06601704       -3.67303219
  6        -0.83549071        3.24438227       -0.70228745
  7        -1.32355718        4.26964271       -0.95039687
  6         0.67969822       -3.36151576       -0.13671529
  7         1.14333612       -4.26935770       -0.69524805
  6        -0.28701906        0.92005270        6.41970335
  6         0.46069555        0.17201139        5.46724143
 16        -1.34296098        0.23149149        7.64419784
 16         0.47232037       -1.59638468        5.38222078
  6        -0.49134751       -1.28534306        7.98783939
  6         0.22659901       -2.00855922        7.08830883
  6        -0.11278157        2.26991326        6.18987519
  7         1.15409329        0.84524407        4.58190682
 16         0.92558892        2.47718745        4.81741364
  6        -0.66254448       -1.73126482        9.33057356
  7        -0.85055137       -2.06601705       10.42774600
  6         0.83549092       -3.24438221        7.45700128
  7         1.32355746       -4.26964261        7.70511071
  6        -0.67969844        3.36151572        6.89142902
  7        -1.14333640        4.26935763        7.44996177

@blind-aug.gbs/N

