%Chk=BLIND02415_mB
%Mem=1GB
%NProcShared=48
#T M05/Gen test Massage SCF=(fermi,maxcyc=60)

M05 opt

0 1
  6         0.36178790        0.85343979        7.12372905
  6         0.38800529        0.86935724        8.54671392
 16         0.52480177       -0.58290747        6.12430439
 16         0.55923680       -0.57767530        9.55238035
  6        -0.24938005       -1.79026583        7.16692148
  6        -0.23280526       -1.78614988        8.52609490
  6         0.26076300        2.14485792        6.64693098
  7         0.31324941        2.03665089        9.13806585
 16         0.23544173        3.23991252        7.99044905
  6        -0.88154780       -2.83774023        6.43599674
  7        -1.36183682       -3.68172628        5.79708907
  6        -0.84866279       -2.83415450        9.27198213
  7        -1.31145692       -3.68131490        9.91933596
  6         0.21470385        2.58419818        5.30155849
  7         0.18501080        2.96331216        4.20315655

@blind-aug.gbs/N

