%Chk=BLIND01447_mA
%Mem=1GB
%NProcShared=48
#T M05/Gen test Massage SCF=(fermi,maxcyc=60)

M05 opt

0 1
  6        -0.69214231        0.52153201       -0.53856503
  6        -0.77745338       -0.88875871       -0.71069514
 16        -0.14888642        1.33185827        0.92320138
 16        -0.31383012       -2.06916172        0.52473617
  6         1.04712087        0.16346871        1.51358640
  6         0.97819651       -1.18478327        1.35512476
  6        -1.16823677        1.15656132       -1.66789008
  7        -1.26187513       -1.32933870       -1.84607387
 16        -1.69294766       -0.04017994       -2.80688762
  6         2.11248854        0.77155479        2.23906052
  7         2.94691593        1.31050839        2.84275994
  6         1.97245196       -2.04222798        1.91206873
  7         2.74323988       -2.78011238        2.37287101
  6        -1.27426582        2.54664575       -1.91606655
  7        -1.37712191        3.68392294       -2.13313139

@blind-aug.gbs/N

