%Chk=BLIND00028
%Mem=1GB
%NProcShared=48
#T M05/Gen test Massage SCF=(fermi,maxcyc=60)

M05 opt

0 1
  6        -0.35229224       -0.90377567       -0.31652588
  6        -1.37193665       -0.01681653        0.13007844
 16         1.16091848       -0.41261951       -1.06316876
 16        -1.26472483        1.74775235        0.03317329
  6         1.44794919        1.12498374       -0.22799710
  6         0.48389953        1.98015706        0.20435795
  6        -0.76294603       -2.20967854       -0.13965196
  7        -2.46788701       -0.55129690        0.61078998
 16        -2.36215693       -2.21053756        0.52919056
  6         2.83191492        1.43021135       -0.07778189
  7         3.97135528        1.64662292       -0.00009836
  6         0.82404107        3.21832452        0.82499232
  7         1.05476362        4.24962325        1.30884785
  6        -0.06663163       -3.40095958       -0.45771512
  7         0.48653327       -4.38879985       -0.72091869
  6        -0.63456232       -0.65237700        5.14026597
  6        -0.01282370        0.26748376        4.24969091
 16         0.07844020       -1.26164212        6.62651631
 16         1.58617908        0.97961267        4.51549324
  6         1.03390655        0.14608539        7.12602544
  6         1.63167400        1.03229622        6.28641332
  6        -1.85184767       -1.04799855        4.62354245
  7        -0.65910796        0.57380620        3.15135434
 16        -2.09152968       -0.27210845        3.09208118
  6         1.17018023        0.25643137        8.54036024
  7         1.27301533        0.29076363        9.69770170
  6         2.42029767        2.10741449        6.79251148
  7         3.09499976        2.97992673        7.15915244
  6        -2.78758934       -1.95649618        5.17507487
  7        -3.56267506       -2.70652962        5.60841987

@blind-aug.gbs/N

