%Chk=BLIND01632
%Mem=1GB
%NProcShared=48
#T M05/Gen test Massage SCF=(fermi,maxcyc=60)

M05 opt

0 1
  6        -0.60731795       -0.05650143       -0.81797396
  6        -0.47868212       -1.28728323       -0.11479855
 16        -0.51846315        1.54001104       -0.08874877
 16        -0.17270693       -1.40908923        1.62477922
  6         0.64190838        1.23371490        1.21656447
  6         0.77567620        0.06350142        1.89505592
  6        -0.88356953       -0.30786342       -2.14681008
  7        -0.63093570       -2.39296922       -0.80192107
 16        -0.98204279       -2.02187157       -2.38619606
  6         1.42922945        2.37548032        1.54456889
  7         2.03008332        3.33935163        1.79179302
  6         1.71121986       -0.06373634        2.96393876
  7         2.43867955       -0.20364235        3.85956974
  6        -1.09751994        0.62356159       -3.19172209
  7        -1.28487845        1.37385348       -4.05950939
  6         0.03885703       -0.73476477       12.92454860
  6         0.10132966        0.58122085       13.46316318
 16        -0.80914630       -1.18712966       11.45323184
 16        -0.64798271        1.99800819       12.71094449
  6        -0.60609548        0.29206936       10.49674730
  6        -0.54387965        1.55387256       10.99837059
  6         0.68470092       -1.61364726       13.77057133
  7         0.72685363        0.73648729       14.60442219
 16         1.27519191       -0.73903696       15.14578178
  6        -0.55551729        0.04838662        9.09348316
  7        -0.54342585       -0.19788895        7.95752755
  6        -0.42644218        2.68313462       10.13528450
  7        -0.36027137        3.63320786        9.46902000
  6         0.84943384       -3.01260892       13.62587244
  7         0.98608605       -4.16275906       13.52801160

@blind-aug.gbs/N

