%Chk=BLIND01687_mB
%Mem=1GB
%NProcShared=48
#T M05/Gen test Massage SCF=(fermi,maxcyc=60)

M05 opt

0 1
  6         0.40685734        0.05741133       12.30402071
  6         1.14241666        0.76892484       13.29322629
 16        -0.53949947       -1.39446352       12.59554230
 16         1.19718480        0.31832416       15.00452633
  6        -1.09806794       -1.08794157       14.25028326
  6        -0.40643840       -0.40949795       15.20370180
  6         0.60746334        0.63931492       11.06852540
  7         1.84587299        1.80079445       12.89541438
 16         1.69487978        1.97739639       11.24710321
  6        -2.36718014       -1.67303377       14.52976669
  7        -3.39227945       -2.18808125       14.71709135
  6        -0.92736541       -0.25929168       16.52279810
  7        -1.29936918       -0.13758806       17.61720550
  6         0.07718143        0.24706529        9.81548519
  7        -0.34150974       -0.06617830        8.77737533

@blind-aug.gbs/N

