%Chk=BLIND00184_mA
%Mem=1GB
%NProcShared=48
#T M05/Gen test Massage SCF=(fermi,maxcyc=60)

M05 opt

0 1
  6        -0.62771288       -0.45572205       -0.66287469
  6        -0.33239744       -1.24746645        0.48244459
 16        -0.69415535        1.30023231       -0.68982511
 16         0.05180662       -0.58129150        2.07718172
  6         0.54269729        1.68791602        0.52014140
  6         0.83523802        0.94040160        1.61708541
  6        -0.92403368       -1.27770036       -1.73144798
  7        -0.38340046       -2.54985995        0.34449571
 16        -0.83497049       -2.92913205       -1.21215264
  6         1.20627488        2.92327051        0.26587041
  7         1.70199563        3.94782893        0.02978987
  6         1.81938707        1.36761064        2.55670502
  7         2.59179205        1.69076257        3.36286226
  6        -1.28288436       -0.90944247       -3.05083449
  7        -1.58785247       -0.62533233       -4.13590214

@blind-aug.gbs/N

