%Chk=BLIND02370
%Mem=1GB
%NProcShared=48
#T M05/Gen test Massage SCF=(fermi,maxcyc=60)

M05 opt

0 1
  6         0.15624861        0.86359407       -0.52048108
  6        -0.40218220       -0.18431395       -1.30525523
 16         1.23135588        0.63821253        0.85132946
 16        -0.12559977       -1.90659301       -1.00219530
  6         0.61377011       -0.89372299        1.49621970
  6         0.07744061       -1.90151284        0.75841598
  6        -0.21714427        2.08499600       -1.04398687
  7        -1.13852162        0.15935372       -2.33363105
 16        -1.18886853        1.81879886       -2.45456037
  6         0.77113955       -1.01047676        2.90784751
  7         0.94239943       -1.06921242        4.05606927
  6        -0.34749430       -3.11651342        1.37253800
  7        -0.67964570       -4.13380136        1.82610918
  6         0.12365629        3.38002287       -0.58362959
  7         0.40089162        4.45045361       -0.22527988
  6         0.88808172       -0.26111732        9.54386103
  6        -0.23536463       -0.44048223        8.68856975
 16         1.02017149        0.96264898       10.79823935
 16        -1.71227450        0.53224035        8.77304671
  6        -0.67349103        1.08449339       11.30890880
  6        -1.75488294        0.91457134       10.50307874
  6         1.88596984       -1.14723434        9.19127181
  7        -0.14699759       -1.36418167        7.76291828
 16         1.35155704       -2.08532093        7.83509222
  6        -0.81982360        1.43427604       12.68270956
  7        -0.88823488        1.74370896       13.80108525
  6        -3.07926942        1.08188954       11.00502195
  7        -4.17402510        1.23661864       11.36348401
  6         3.16949788       -1.30122430        9.76920892
  7         4.23024218       -1.43507984       10.22527924

@blind-aug.gbs/N

