%Chk=BLIND00389
%Mem=1GB
%NProcShared=48
#T M05/Gen test Massage SCF=(fermi,maxcyc=60)

M05 opt

0 1
  6        -0.45816232        0.89391148        0.17921623
  6        -0.30512485        0.59667811       -1.20427880
 16        -0.66870323       -0.29800752        1.45338980
 16        -0.26979128       -1.04395283       -1.86886136
  6         0.29486137       -1.63735033        0.80390833
  6         0.45001914       -1.93135512       -0.51409444
  6        -0.48781946        2.26209922        0.35945488
  7        -0.21911401        1.60888163       -2.03247335
 16        -0.35181699        3.03588174       -1.18572812
  6         0.88498673       -2.44553713        1.81863776
  7         1.32535940       -3.08815728        2.68136847
  6         1.21068350       -3.06372131       -0.93012147
  7         1.79647873       -3.99159593       -1.31329083
  6        -0.63587895        2.98675258        1.56698308
  7        -0.76569358        3.59760584        2.54734136
  6        -0.20709165       -0.43412408        6.75273306
  6        -0.05781367       -1.36710556        5.68826686
 16         0.61890127        1.11293754        6.86610261
 16         0.97276320       -1.10180852        4.27330498
  6         0.73577949        1.54215125        5.14964197
  6         0.87739179        0.66159088        4.12387228
  6        -1.04351112       -0.95982028        7.71676065
  7        -0.70222831       -2.50402848        5.78824734
 16        -1.53529886       -2.54877267        7.22870155
  6         0.71348879        2.94882852        4.92193196
  7         0.71491563        4.10356141        4.78857928
  6         1.01029520        1.11548609        2.77841409
  7         1.15111106        1.44098382        1.67154993
  6        -1.45101946       -0.37555133        8.94058057
  7        -1.78832151        0.08480483        9.95319869

@blind-aug.gbs/N

