%Chk=BLIND01075_mA
%Mem=1GB
%NProcShared=48
#T M05/Gen test Massage SCF=(fermi,maxcyc=60)

M05 opt

0 1
  6         0.18637693        0.55463201       -0.83591619
  6         0.12102387       -0.84583803       -1.08135315
 16         0.72872537        1.29546996        0.66259438
 16         0.55078473       -2.08323226        0.10975955
  6         0.18295808        0.08400289        1.83673563
  6         0.11479091       -1.25532177        1.61490967
  6        -0.17260159        1.24307108       -1.97718272
  7        -0.25004964       -1.23157560       -2.27775233
 16        -0.52551069        0.10273407       -3.23412871
  6        -0.15181868        0.64398468        3.10379308
  7        -0.39022283        1.14375518        4.12584295
  6        -0.29458224       -2.15138244        2.64613749
  7        -0.59414985       -2.92031511        3.46462874
  6        -0.23352802        2.64370060       -2.17641466
  7        -0.28016230        3.79044791       -2.36051185

@blind-aug.gbs/N

