%Chk=BLIND01069
%Mem=1GB
%NProcShared=48
#T M05/Gen test Massage SCF=(fermi,maxcyc=60)

M05 opt

0 1
  6         0.37604372       -0.86959721       -0.37881490
  6         0.62257844       -0.69773406        1.01241130
 16         0.23740334        0.43268040       -1.55072296
 16         0.79974868        0.87710584        1.80176442
  6        -0.48479888        1.69889822       -0.54114955
  6        -0.25876065        1.87332474        0.78780724
  6         0.33362969       -2.21604647       -0.67977777
  7         0.75796874       -1.78018126        1.73893560
 16         0.62616373       -3.12506975        0.76691745
  6        -1.32443121        2.58747473       -1.27363776
  7        -1.98007568        3.29927296       -1.91758390
  6        -0.85496567        2.95623014        1.49900159
  7        -1.29563263        3.84023025        2.11160469
  6         0.12548593       -2.82926596       -1.93906586
  7        -0.03461211       -3.34945713       -2.96613240
  6        -0.45277988        0.28027383        8.19789430
  6        -1.36400650       -0.13984250        9.20734711
 16         1.09706699        1.05485328        8.49203372
 16        -1.06476374        0.02342393       10.94469744
  6         1.56016377        0.27946861       10.01795707
  6         0.70054919       -0.12721825       10.98919989
  6        -1.00239369        0.05213408        6.95243048
  7        -2.50676397       -0.64748688        8.81458436
 16        -2.58472555       -0.62702160        7.15192984
  6         2.97081284        0.15003906       10.17418405
  7         4.12789583        0.08813661       10.26648814
  6         1.18124442       -0.69901237       12.20407665
  7         1.52900164       -1.14256526       13.22056662
  6        -0.44454870        0.33029343        5.68097274
  7        -0.00605234        0.56024505        4.62933634

@blind-aug.gbs/N

