%Chk=BLIND00262_mA
%Mem=1GB
%NProcShared=48
#T M05/Gen test Massage SCF=(fermi,maxcyc=60)

M05 opt

0 1
  6        -0.42251692        0.91480257       -0.16038895
  6         0.38215285        0.45865890       -1.24217736
 16        -1.32605674       -0.11997744        0.93567800
 16         0.63108092       -1.24773867       -1.64321415
  6        -0.26305461       -1.53816610        0.98943178
  6         0.51084284       -1.98361503       -0.03541066
  6        -0.44282117        2.29491353       -0.14679861
  7         0.94218966        1.36783284       -2.00219153
 16         0.50304677        2.88428190       -1.47450540
  6        -0.31917153       -2.23259941        2.23269480
  7        -0.41669139       -2.77795827        3.25458844
  6         1.29629625       -3.16662312        0.09686454
  7         1.92874885       -4.14032934        0.15002520
  6        -1.12512747        3.15534599        0.74722742
  7        -1.68578638        3.87641590        1.46612636

@blind-aug.gbs/N

