%Chk=BLIND01521
%Mem=1GB
%NProcShared=48
#T M05/Gen test Massage SCF=(fermi,maxcyc=60)

M05 opt

0 1
  6        -0.22563844        0.85690108       -0.50588215
  6         0.19732719       -0.20996875       -1.34773457
 16        -1.08167843        0.66623636        1.01706208
 16        -0.04575671       -1.92378749       -0.97581538
  6        -0.38730541       -0.86229994        1.58762756
  6         0.02132718       -1.88804533        0.79484142
  6         0.07500827        2.06526325       -1.10151260
  7         0.77185943        0.10845738       -2.48192042
 16         0.81846495        1.76503967       -2.63838102
  6        -0.32926639       -0.95450931        3.00861966
  7        -0.32447503       -0.99277908        4.17038792
  6         0.52352874       -3.09793851        1.35866235
  7         0.91143225       -4.11164578        1.77442017
  6        -0.17992726        3.37143397       -0.61767962
  7        -0.38961188        4.45066743       -0.24034235
  6        -0.23721862       -0.98565740        8.15310619
  6         0.11897424       -0.63515042        9.48580952
 16        -1.01157566        0.08751956        6.99674161
 16        -0.13497412        0.96849628       10.19179524
  6        -0.31529013        1.64343892        7.48502787
  6         0.03005419        1.99026899        8.75313286
  6         0.05253154       -2.31667255        7.93006644
  7         0.63604740       -1.57516083       10.23872106
 16         0.70464021       -3.00129788        9.38294944
  6        -0.18089395        2.56059313        6.40250513
  7        -0.11291569        3.28134171        5.49305834
  6         0.54002095        3.28932304        9.04696004
  7         0.93137049        4.34467731        9.33678590
  6        -0.15117675       -3.07529201        6.75186107
  7        -0.31977005       -3.71544887        5.79641803

@blind-aug.gbs/N

