%Chk=BLIND00392_mB
%Mem=1GB
%NProcShared=48
#T M05/Gen test Massage SCF=(fermi,maxcyc=60)

M05 opt

0 1
  6        -0.76314270        0.07262156        6.24182607
  6        -0.30048328       -1.25860651        6.04281666
 16         0.22618272        1.51886317        6.10715225
 16         1.35981825       -1.67501504        5.59049917
  6         1.35867049        1.01734365        4.83826624
  6         1.80736408       -0.24982936        4.63679494
  6        -2.08862182        0.05067349        6.62643836
  7        -1.15692852       -2.23060009        6.24178921
 16        -2.61731341       -1.59702734        6.72838804
  6         1.81765454        2.10291681        4.03704578
  7         2.18118864        3.02299514        3.42672468
  6         2.75767570       -0.53922039        3.61351463
  7         3.55266991       -0.81583740        2.81202017
  6        -2.93232990        1.14487745        6.93634610
  7        -3.63632847        2.03048616        7.20314030

@blind-aug.gbs/N

