%Chk=BLIND01924_mA
%Mem=1GB
%NProcShared=48
#T M05/Gen test Massage SCF=(fermi,maxcyc=60)

M05 opt

0 1
  6         0.82211800        0.32399544       -0.51015473
  6         0.75399654       -1.09119508       -0.37442742
 16         0.18033289        1.48363618        0.64390847
 16        -0.02637976       -1.92178922        0.98045802
  6        -1.22485851        0.58913152        1.25170828
  6        -1.30326132       -0.76130096        1.38523417
  6         1.53120736        0.64736913       -1.64941982
  7         1.33744581       -1.81429311       -1.29886033
 16         2.06004332       -0.81441646       -2.41645436
  6        -2.29876180        1.43741839        1.64949058
  7        -3.13712247        2.17052854        1.98249798
  6        -2.46665881       -1.37974532        1.93110483
  7        -3.38190360       -1.92380340        2.39720989
  6         1.84500044        1.93251881       -2.15448680
  7         2.11955452        2.97937111       -2.57853426

@blind-aug.gbs/N

