%Chk=BLIND00999
%Mem=2GB
%NProcShared=16
#T M05/Gen test Massage Symmetry=None SCF=(tight,maxcyc=60)

M05 opt

0 1
  6        -0.42458796        0.31753804        0.87178183
  6         0.40594628        1.29282943        0.25142208
 16        -0.19479028       -1.42167346        0.76760388
 16         1.80332624        0.90510116       -0.76424734
  6         0.48737265       -1.55926609       -0.86329896
  6         1.28051280       -0.63539586       -1.46748151
  6        -1.39497331        0.94617355        1.62575325
  7         0.12959224        2.55346332        0.48009362
 16        -1.16971266        2.66134806        1.51502578
  6         0.16138025       -2.78979158       -1.50409974
  7        -0.11106284       -3.81667796       -1.97576926
  6         1.81763072       -0.86566710       -2.76841250
  7         2.30040989       -1.02352055       -3.81384671
  6        -2.41548018        0.35828610        2.41196094
  7        -3.25341390       -0.10712395        3.06949914
  6         0.63620962       -0.57184727        7.78454702
  6        -0.39209465        0.04818942        7.02036675
 16         1.34687460        0.08893433        9.24975676
 16        -1.15274011        1.58926585        7.44591376
  6        -0.05242800        0.93796479        9.93182833
  6        -1.04133263        1.53307143        9.21380342
  6         1.04011509       -1.73539040        7.16138492
  7        -0.76837570       -0.55140349        5.91729788
 16         0.13660418       -1.93071607        5.69498031
  6        -0.03618062        0.98905237       11.35598272
  7         0.03318541        1.02521649       12.51575577
  6        -2.10118783        2.23328390        9.86214854
  7        -2.96712502        2.83858901       10.34659114
  6         2.04053960       -2.65019810        7.57058670
  7         2.86452862       -3.40676792        7.88640331

@aug-cc-pVTZ.gbs/N

