%Chk=BLIND00043
%Mem=2GB
%NProcShared=16
#T M05/Gen test Massage Symmetry=None SCF=(tight,maxcyc=60)

M05 opt

0 1
  6        -0.34506029        0.90490324        0.32123580
  6        -1.37271795        0.02463789       -0.12021556
 16         1.17072868        0.40363844        1.05583368
 16        -1.27449593       -1.74072480       -0.02837149
  6         1.44334918       -1.13344266        0.21489263
  6         0.47156013       -1.98226191       -0.21263045
  6        -0.74979871        2.21346465        0.15048144
  7        -2.46912630        0.56628790       -0.59177047
 16        -2.35371765        2.22471906       -0.50689513
  6         2.82451179       -1.44585961        0.05403511
  7         3.96216414       -1.66830455       -0.03232687
  6         0.80046399       -3.22073306       -0.83869226
  7         1.02206488       -4.25207899       -1.32669303
  6        -0.04470711        3.40013166        0.46644928
  7         0.51573319        4.38427969        0.72808882
  6         0.60013627       -0.58189911        5.42617091
  6        -0.49093490       -1.28777959        4.84554788
 16         1.41014429        0.80072958        4.70454667
 16        -1.23791031       -0.86134058        3.29804479
  6         0.05491807        1.55590038        3.84594254
  6        -0.99306315        0.89392425        3.28811908
  6         0.97150654       -1.19178028        6.60745508
  7        -0.94110618       -2.33703383        5.48918706
 16        -0.03708687       -2.57767098        6.86605297
  6         0.17758875        2.97199676        3.74244080
  7         0.33353005        4.12115446        3.66299327
  6        -2.01038544        1.59512763        2.57586132
  7        -2.84542176        2.12172716        1.96240112
  6         2.01200596       -0.82696857        7.49596047
  7         2.86744716       -0.54752794        8.23164329

@aug-cc-pVTZ.gbs/N

