%Chk=BLIND01883
%Mem=2GB
%NProcShared=16
#T M05/Gen test Massage Symmetry=None SCF=(tight,maxcyc=60)

M05 opt

0 1
  6        -0.52055821        0.39021479       -0.78604101
  6        -0.52909935       -1.03245335       -0.74398074
 16        -0.42710236        1.44385883        0.61738938
 16        -0.41328721       -1.98195833        0.74585690
  6         0.57329569        0.45468747        1.69667890
  6         0.57552222       -0.90369065        1.74615587
  6        -0.66882813        0.81686005       -2.09037727
  7        -0.66488636       -1.66844711       -1.88193234
 16        -0.82904344       -0.56822882       -3.12027359
  6         1.37922450        1.23041335        2.57975181
  7         1.99932258        1.90517572        3.29485121
  6         1.38647201       -1.60370514        2.68758142
  7         2.00821774       -2.21418797        3.45678172
  6        -0.72456532        2.14431900       -2.58018799
  7        -0.78164978        3.22724197       -2.99865559
  6         0.21148444        0.13626430        9.99239543
  6         1.32256496       -0.31681124        9.22685686
 16        -1.09391636        1.14327080        9.38380420
 16         1.55485689        0.03921945        7.50817395
  6        -1.18111177        0.57793413        7.70543788
  6        -0.12864968        0.14196899        6.96388410
  6         0.35164944       -0.27549093       11.30240101
  7         2.24150539       -1.01220556        9.85122474
 16         1.84024053       -1.14944737       11.46090424
  6        -2.49271368        0.66174503        7.15428834
  7        -3.57400190        0.77098410        6.74188607
  6        -0.29965377       -0.24752656        5.60263734
  7        -0.38710949       -0.54666039        4.48290675
  6        -0.51399628       -0.03502266       12.39693330
  7        -1.20820033        0.16054622       13.30848662

@aug-cc-pVTZ.gbs/N

