%Chk=BLIND01342
%Mem=2GB
%NProcShared=16
#T M05/Gen test Massage Symmetry=None SCF=(tight,maxcyc=60)

M05 opt

0 1
  6         0.28883126        0.39817185       -0.89394887
  6         0.30619008       -1.02482140       -0.86913872
 16         0.58063893        1.43838104        0.49217153
 16         0.59670486       -1.98851147        0.58739516
  6        -0.09162431        0.43801373        1.79272889
  6        -0.08252011       -0.92077362        1.82819837
  6         0.07897314        0.83730211       -2.18562507
  7         0.12769472       -1.64987048       -2.00725693
 16        -0.04792871       -0.53780661       -3.23338386
  6        -0.62703261        1.20452002        2.86831977
  7        -1.02920922        1.87184752        3.73094426
  6        -0.60929633       -1.63049852        2.94745675
  7        -1.00044328       -2.24887198        3.85053175
  6         0.00207195        2.16939659       -2.65973365
  7        -0.05459752        3.25629186       -3.06783065
  6         0.83043784        0.51507141        7.94725281
  6        -0.37934903        1.25135252        8.08914183
 16         0.97425520       -1.23129758        8.08152326
 16        -1.95955732        0.51420617        8.39597301
  6        -0.60073437       -1.73434248        7.44083943
  6        -1.76264519       -1.04054923        7.56834717
  6         1.88457866        1.38616525        7.75940749
  7        -0.30167812        2.55786321        8.01944921
 16         1.28509295        3.01205860        7.80316002
  6        -0.56122226       -3.00189647        6.79058152
  7        -0.48393233       -4.04886768        6.29151181
  6        -2.98829556       -1.55855384        7.05512760
  7        -4.01400669       -1.95505603        6.67879155
  6         3.25670537        1.08162182        7.58709954
  7         4.38800564        0.85050056        7.45353835

@aug-cc-pVTZ.gbs/N

