%Chk=BLIND01266
%Mem=2GB
%NProcShared=16
#T M05/Gen test Massage Symmetry=None SCF=(tight,maxcyc=80)

M05 opt

0 1
  6        -0.01223607       -0.46311994       -0.90910897
  6         0.58053431       -1.24391159        0.12278944
 16         0.00853059        1.29235968       -0.98896313
 16         1.41723249       -0.56262633        1.52648987
  6        -0.03226661        1.69378478        0.73768552
  6         0.52848118        0.95678333        1.73269046
  6        -0.54337298       -1.29530052       -1.87382254
  7         0.52648160       -2.54760182       -0.00102540
 16        -0.23670901       -2.94181883       -1.42687600
  6        -0.69015817        2.92841472        1.00963636
  7        -1.21432799        3.95201634        1.17898439
  6         0.47931451        1.39471493        3.08906080
  7         0.48879358        1.72689531        4.20283477
  6        -1.21043903       -0.93968164       -3.07120575
  7        -1.75190788       -0.66598873       -4.06266910
  6         0.25233799       -0.91739926        5.19452797
  6         1.24636848       -0.34660698        6.03828518
 16        -1.47762091       -0.64450926        5.34043847
 16         0.89798837        0.76965478        7.36763815
  6        -1.49102494        1.02467586        5.93857178
  6        -0.54813091        1.58213959        6.74345008
  6         0.84729061       -1.77352953        4.28988685
  7         2.49055875       -0.70231213        5.83013994
 16         2.55475948       -1.80739325        4.58692199
  6        -2.64255708        1.75696873        5.52770618
  7        -3.60935580        2.30531036        5.18739057
  6        -0.67843498        2.92417192        7.20811342
  7        -0.75817381        4.00276810        7.63378715
  6         0.23102023       -2.55402490        3.28181630
  7        -0.25889523       -3.20837579        2.45543644

@aug-cc-pVTZ.gbs/N

