%Chk=BLIND01084
%Mem=2GB
%NProcShared=16
#T M05/Gen test Massage Symmetry=None SCF=(tight,maxcyc=60)

M05 opt

0 1
  6         0.61614982        0.55078573        0.59841740
  6         0.28856264        1.19155274       -0.62956099
 16         0.74032168       -1.18661050        0.83198181
 16        -0.08256235        0.32936178       -2.13072098
  6        -0.48994732       -1.75407418       -0.31193482
  6        -0.81303735       -1.15138837       -1.48668020
  6         0.89136155        1.50251416        1.55954940
  7         0.29758261        2.50207831       -0.64692167
 16         0.74523499        3.07717195        0.84967164
  6        -1.11119043       -2.97118601        0.09276931
  7        -1.57168871       -3.97588851        0.45291824
  6        -1.78792167       -1.71801163       -2.35988154
  7        -2.55384099       -2.15880640       -3.11486080
  6         1.26953528        1.30467199        2.90973884
  7         1.58977417        1.16088514        4.01783104
  6        -0.96810748        0.31455432        5.77899312
  6        -0.71450707       -0.50762353        4.64517785
 16        -0.12749453        0.20341102        7.31832209
 16         0.52628432       -1.76944255        4.59190688
  6         1.48162058       -0.30165702        6.77080322
  6         1.73752211       -1.08517543        5.68994368
  6        -2.02239713        1.16388674        5.50990025
  7        -1.47492236       -0.33343109        3.59195156
 16        -2.60583812        0.84620864        3.90880568
  6         2.53123569        0.16188619        7.61609931
  7         3.35014856        0.54277347        8.34787771
  6         3.07012238       -1.47369222        5.36257056
  7         4.13573339       -1.83836571        5.07549471
  6        -2.60824921        2.13430555        6.35856574
  7        -3.10727107        2.92884712        7.04469750

@aug-cc-pVTZ.gbs/N

