%Chk=BLIND00497
%Mem=2GB
%NProcShared=16
#T M05/Gen test Massage Symmetry=None SCF=(tight,maxcyc=60)

M05 opt

0 1
  6         0.38187907        0.04226047        0.94524671
  6        -0.13707515        1.28393056        0.48181542
 16        -0.21205495       -1.54275394        0.47250118
 16        -1.46039494        1.43298398       -0.68488769
  6        -0.71725654       -1.21319554       -1.19491739
  6        -1.21315970       -0.03244445       -1.65049502
  6         1.37446951        0.27263767        1.87637171
  7         0.38232097        2.37862059        0.98155679
 16         1.54677777        1.98251783        2.10318947
  6        -0.59951240       -2.34745635       -2.04971466
  7        -0.50805999       -3.30563626       -2.70142069
  6        -1.63589293        0.11381210       -3.00469131
  7        -2.01916154        0.26947785       -4.09087705
  6         2.14390422       -0.67514385        2.59390140
  7         2.77812909       -1.43905195        3.19830123
  6         0.30380837       -0.97116007        5.40591224
  6        -0.93009001       -0.80956701        4.71510899
 16         1.61165923        0.20249300        5.43002110
 16        -1.36437912        0.63184474        3.78327560
  6         0.68938440        1.71428716        5.34052473
  6        -0.48986892        1.88169312        4.68555838
  6         0.34615503       -2.21892744        5.99462827
  7        -1.77630579       -1.80983247        4.75043461
 16        -1.11675360       -3.06873802        5.61707446
  6         1.33173818        2.80145439        6.00123548
  7         1.90500481        3.66197444        6.53233213
  6        -1.12826011        3.15599363        4.63499330
  7        -1.66841866        4.18104378        4.54319424
  6         1.38732887       -2.79336590        6.76348843
  7         2.23543457       -3.28404048        7.38882922

@aug-cc-pVTZ.gbs/N

