%Chk=BLIND00939
%Mem=2GB
%NProcShared=16
#T M05/Gen test Massage Symmetry=None SCF=(tight,maxcyc=60)

M05 opt

0 1
  6        -0.85782500        0.43359199        0.34240789
  6        -0.11788280        1.25736755       -0.55185494
 16        -0.89840227       -1.32289028        0.30190900
 16         0.91921197        0.63626138       -1.84539656
  6         0.74199271       -1.66969730       -0.27511030
  6         1.45965016       -0.89143159       -1.12770300
  6        -1.59456518        1.22495445        1.20046534
  7        -0.24565751        2.55527100       -0.42154652
 16        -1.32247283        2.89010742        0.80290038
  6         1.25635293       -2.90657947        0.21135214
  7         1.62279764       -3.93345852        0.61437909
  6         2.75715922       -1.28668175       -1.56837234
  7         3.80447987       -1.58294236       -1.97614097
  6        -2.47345033        0.81946137        2.23405360
  7        -3.20549258        0.50465182        3.08028348
  6        -0.61323582       -0.35100558        5.11590078
  6        -0.05218672       -1.37500286        4.30197196
 16         0.15656999        1.18543829        5.48367231
 16         1.51762959       -1.25105707        3.49271148
  6         1.05656832        1.46250725        3.98122169
  6         1.59623721        0.49420664        3.19458615
  6        -1.82131081       -0.77671360        5.63032347
  7        -0.73372461       -2.48762043        4.17768085
 16        -2.12690645       -2.39310963        5.08378733
  6         1.21604377        2.84439709        3.67132218
  7         1.34043223        3.98307135        3.47348015
  6         2.34492839        0.82766505        2.02744908
  7         2.98629445        1.05372170        1.08486004
  6        -2.70330187       -0.08178999        6.49307569
  7        -3.43445090        0.47021657        7.20848171

@aug-cc-pVTZ.gbs/N

