%Chk=BLIND00212
%Mem=2GB
%NProcShared=16
#T M05/Gen test Massage Symmetry=None SCF=(tight,maxcyc=60)

M05 opt

0 1
  6        -0.09868050       -0.85741652        0.54424993
  6         0.51475868        0.20804120        1.26141022
 16        -1.29454895       -0.66413684       -0.72895793
 16         0.19132576        1.92252018        0.96050937
  6        -0.75562892        0.86467632       -1.44757996
  6        -0.16790415        1.88908475       -0.77466763
  6         0.33474846       -2.06677655        1.04911711
  7         1.34403309       -0.11228866        2.22450562
 16         1.42513654       -1.76910921        2.36337529
  6        -1.03971924        0.95873384       -2.84096990
  7        -1.31343807        0.99854414       -3.96998990
  6         0.18574524        3.09937892       -1.44104745
  7         0.46371521        4.11336960       -1.93650857
  6        -0.02999709       -3.37212674        0.63900737
  7        -0.32506501       -4.45071270        0.32170125
  6        -0.31459401        0.73306503        5.79858509
  6         0.90803902        1.03642880        6.46112984
 16        -0.86131907       -0.88184134        5.37233895
 16         2.07485726       -0.18219934        6.99785042
  6        -0.17339605       -1.81865650        6.71146604
  6         0.99189313       -1.53938646        7.35314619
  6        -0.97167703        1.90387373        5.47803539
  7         1.19312963        2.30156147        6.65092630
 16        -0.01000019        3.24896012        5.99836877
  6        -0.94976728       -2.96511592        7.04905774
  7        -1.60333276       -3.90022916        7.27178722
  6         1.48159462       -2.38722668        8.39011357
  7         1.93280987       -3.06504322        9.21950832
  6        -2.20879120        2.06246669        4.80753911
  7        -3.21801812        2.21159296        4.25047693

@aug-cc-pVTZ.gbs/N

