%Chk=BLIND00608
%Mem=2GB
%NProcShared=16
#T M05/Gen test Massage Symmetry=None SCF=(tight,maxcyc=60)

M05 opt

0 1
  6        -0.64844110       -0.58439059       -0.52831873
  6        -0.22471316       -1.16587519        0.69975169
 16        -0.81573620        1.13924815       -0.82764877
 16         0.23855362       -0.23332593        2.13164697
  6         0.48363305        1.77211350        0.19960148
  6         0.89851107        1.22624900        1.37329318
  6        -0.97636290       -1.58120537       -1.42505215
  7        -0.21219767       -2.47434674        0.77462203
 16        -0.75590892       -3.12084553       -0.65971904
  6         1.05570053        2.97761618       -0.30098992
  7         1.47389416        3.97093140       -0.73645747
  6         1.92398307        1.84309560        2.14908270
  7         2.73460416        2.32641636        2.82747833
  6        -1.45235694       -1.44822849       -2.75204697
  7        -1.85256277       -1.35777827       -3.83959006
  6        -0.51726595       -0.87922120        5.62193602
  6        -1.33748866        0.27164871        5.79093245
 16         0.96801400       -0.93484820        4.68419098
 16        -0.97201007        1.86074772        5.10116578
  6         1.57171923        0.71277935        4.93911362
  6         0.79979828        1.81956846        5.10282057
  6        -1.10249983       -1.96203129        6.24669744
  7        -2.44677431        0.12640976        6.47375822
 16        -2.60528096       -1.46062862        6.95031012
  6         2.99412167        0.79765275        4.91347285
  7         4.15511826        0.82023415        4.86084174
  6         1.38771168        3.11006264        5.25422902
  7         1.82229722        4.18363993        5.35166281
  6        -0.63335961       -3.29630042        6.31599235
  7        -0.26810050       -4.39820301        6.37508865

@aug-cc-pVTZ.gbs/N

