%Chk=BLIND00353
%Mem=2GB
%NProcShared=16
#T M05/Gen test Massage Symmetry=None SCF=(tight,maxcyc=60)

M05 opt

0 1
  6        -0.47883984       -0.87930998        0.19655858
  6         0.67199098       -0.66136138        1.00520775
 16        -1.51642139        0.38374739       -0.44890811
 16         1.26939875        0.93903880        1.47040831
  6        -0.33051538        1.67792609       -0.69960814
  6         0.77253569        1.89631871        0.06408489
  6        -0.69718232       -2.23497034        0.05579364
  7         1.30171212       -1.71907971        1.45525580
 16         0.51349554       -3.09529401        0.94962184
  6        -0.66226212        2.53787733       -1.78658451
  7        -0.98696669        3.22499356       -2.66614761
  6         1.63983284        2.99834634       -0.19528489
  7         2.35735299        3.89923797       -0.35176255
  6        -1.73291060       -2.88957906       -0.65408156
  7        -2.58119446       -3.44346404       -1.22392525
  6        -0.79678802        0.63734214        4.84668580
  6        -0.77128808       -0.25665095        3.73945829
 16        -0.15998689        0.28571822        6.44648628
 16        -0.05618135       -1.87557533        3.78736001
  6         1.20088609       -0.77053905        6.02640608
  6         1.23848173       -1.62751630        4.97197704
  6        -1.46111207        1.79462009        4.49357883
  7        -1.34510963        0.14097730        2.63018798
 16        -2.00527312        1.65261698        2.85389886
  6         2.28450135       -0.67997702        6.94763686
  7         3.13166615       -0.58906267        7.73835767
  6         2.36717085       -2.47046720        4.74963366
  7         3.25241239       -3.19583551        4.54686688
  6        -1.72412190        2.93532042        5.29032035
  7        -1.95690053        3.87582115        5.93247952

@aug-cc-pVTZ.gbs/N

