%Chk=BLIND02044
%Mem=2GB
%NProcShared=16
#T M05/Gen test Massage Symmetry=None SCF=(tight,maxcyc=60)

M05 opt

0 1
  6         0.60841231       -0.81910148        0.00401684
  6        -0.38754202       -0.84120666        1.02058606
 16         1.34840012        0.63153582       -0.65672978
 16        -1.07298245        0.60898174        1.77006145
  6        -0.00890378        1.76666256       -0.54125046
  6        -0.96677731        1.75592013        0.42311822
  6         0.95613750       -2.11164284       -0.33321787
  7        -0.79104782       -2.01418112        1.44387559
 16         0.04614631       -3.21305301        0.64843289
  6         0.00792084        2.76423512       -1.55892210
  7         0.07742635        3.57064200       -2.39323016
  6        -1.99222027        2.74667015        0.45180772
  7        -2.82836823        3.55010275        0.53104646
  6         1.91039425       -2.54536525       -1.28529317
  7         2.69623524       -2.91919076       -2.05588017
  6         0.89744139       -0.34025478        9.54867566
  6        -0.16566809       -0.47522165       10.48537670
 16         0.72145589       -0.40612676        7.80133293
 16        -1.86268998       -0.70216431       10.03459732
  6        -0.89270180        0.30327138        7.61326028
  6        -1.91579535        0.18295554        8.50007917
  6         2.09670789       -0.22146306       10.22169248
  7         0.14697112       -0.46238073       11.75814999
 16         1.79641851       -0.31428857       11.92640250
  6        -1.05591073        1.00417364        6.38314300
  7        -1.14825582        1.54374636        5.35770325
  6        -3.19400006        0.75489339        8.22985380
  7        -4.25908823        1.17890101        8.03820084
  6         3.39777975       -0.07909520        9.68121876
  7         4.47374558        0.02896131        9.25493571

@aug-cc-pVTZ.gbs/N

