%Chk=BLIND01184
%Mem=2GB
%NProcShared=16
#T M05/Gen test Massage Symmetry=None SCF=(tight,maxcyc=60)

M05 opt

0 1
  6         0.46118983        0.00086545       -0.91017147
  6         0.45496415       -1.27192917       -0.27316146
 16         0.49326402        1.54880997       -0.07869348
 16         0.44616831       -1.50316238        1.48212831
  6        -0.43045078        1.14938479        1.38121493
  6        -0.44600055       -0.06151875        1.99855995
  6         0.51047004       -0.16571961       -2.27952317
  7         0.49154758       -2.33177909       -1.04338209
 16         0.57048676       -1.86063574       -2.63796964
  6        -1.15352316        2.25930594        1.90688689
  7        -1.70603896        3.19888481        2.31075677
  6        -1.18819317       -0.26507576        3.19925000
  7        -1.75438337       -0.46817302        4.19378823
  6         0.54387640        0.83014872       -3.28565375
  7         0.58120087        1.63412375       -4.12429965
  6         0.97132996       -0.08168189        9.66665645
  6         0.79651956       -0.20815825        8.25979054
 16        -0.03974886        0.88625257       10.72936015
 16        -0.50346896        0.57380076        7.34701548
  6        -1.60544130        0.73382544        9.91113328
  6        -1.78610520        0.61140703        8.56948566
  6         2.09751082       -0.77686627       10.05875156
  7         1.67792912       -0.92352989        7.60464123
 16         2.83483213       -1.48768386        8.66020868
  6        -2.71284618        0.79723329       10.80596486
  7        -3.58371171        0.87814471       11.57162770
  6        -3.09494250        0.54288780        8.00717616
  7        -4.14195640        0.51308671        7.50339057
  6         2.64233164       -0.90627914       11.35936334
  7         3.10857157       -1.01553946       12.41850376

@aug-cc-pVTZ.gbs/N

