%Chk=BLIND02030
%Mem=2GB
%NProcShared=16
#T M05/Gen test Massage Symmetry=None SCF=(tight,maxcyc=60)

M05 opt

0 1
  6         0.57719061        0.00457846        0.84139108
  6         0.48580112        1.27359718        0.20337375
 16         0.50080967       -1.54823180        0.02196268
 16         0.24538459        1.49448421       -1.53674037
  6        -0.60774212       -1.15757822       -1.30567611
  6        -0.70572197        0.04966468       -1.92261094
  6         0.80646355        0.17923638        2.19129172
  7         0.62262699        2.33797264        0.95586533
 16         0.91161044        1.87624538        2.52882858
  6        -1.39276382       -2.27070541       -1.72493551
  7        -1.99281838       -3.21274541       -2.04694201
  6        -1.59996614        0.24601284       -3.01609926
  7        -2.29255857        0.44314700       -3.92844787
  6         0.97320980       -0.81068149        3.19000426
  7         1.12157016       -1.60969538        4.02106499
  6         0.57094446        0.00181480       12.31556243
  6        -0.67001119        0.68337275       12.46162572
 16         0.85459675       -1.36752488       11.25115327
 16        -2.13795714        0.27642098       11.55934346
  6        -0.25053310       -0.97579664        9.92098069
  6        -1.43721706       -0.32491872       10.04661176
  6         1.49812598        0.53361155       13.18896375
  7        -0.72700163        1.64913852       13.34588168
 16         0.74372417        1.79177977       14.11239064
  6         0.20120566       -1.45746488        8.65804068
  7         0.59927184       -1.88988110        7.65516853
  6        -2.27617920       -0.10088982        8.91528709
  7        -3.00434882        0.07761088        8.02712458
  6         2.84701044        0.14797333       13.38121961
  7         3.95330322       -0.16135830       13.55877562

@aug-cc-pVTZ.gbs/N

