%Chk=BLIND00616
%Mem=2GB
%NProcShared=16
#T M05/Gen test Massage Symmetry=None SCF=(tight,maxcyc=60)

M05 opt

0 1
  6        -0.67209473        0.75353706       -0.14689955
  6        -1.09960102       -0.50276862       -0.66144893
 16         0.37069648        0.97314684        1.25055337
 16        -0.61765942       -2.06726866        0.01283606
  6         1.39193960       -0.47054154        1.12036724
  6         0.99666397       -1.67521141        0.63029404
  6        -1.25818025        1.77416257       -0.86810032
  7        -1.92778082       -0.48796083       -1.67720430
 16        -2.28897090        1.08623631       -2.08014597
  6         2.70670828       -0.27395159        1.63400657
  7         3.75862203       -0.07255427        2.08579147
  6         1.88627386       -2.78977605        0.61350570
  7         2.56712920       -3.73175435        0.60725929
  6        -1.11769907        3.17156821       -0.68729387
  7        -1.02139639        4.32146508       -0.54744077
  6        -0.80315548        0.53344387        5.96191569
  6         0.40475978        0.82271042        5.26686732
 16        -1.21021506       -1.01710481        6.68206700
 16         1.72206152       -0.33839315        5.04071925
  6         0.39974109       -1.57885586        7.16848145
  6         1.56054098       -1.30909882        6.51470870
  6        -1.63611729        1.63340948        5.92250110
  7         0.52457515        2.01545119        4.73689207
 16        -0.86211356        2.89269421        5.01699199
  6         0.37619055       -2.41011646        8.32586680
  7         0.30360775       -3.10152709        9.25746548
  6         2.80066397       -1.85105107        6.96451383
  7         3.82846683       -2.29422233        7.27779749
  6        -2.93225108        1.77490497        6.47493633
  7        -4.00062731        1.90553763        6.91380218

@aug-cc-pVTZ.gbs/N

