%Chk=BLIND01458
%Mem=2GB
%NProcShared=16
#T M05/Gen test Massage Symmetry=None SCF=(tight,maxcyc=60)

M05 opt

0 1
  6         0.38864956        0.32835456       -0.88444543
  6         0.26930818       -1.08758120       -0.80252951
 16        -0.66858606        1.48132569       -0.08355401
 16        -0.95961098       -1.92604871        0.15732374
  6        -1.06998998        0.58051012        1.39005662
  6        -1.18596253       -0.77068611        1.48205220
  6         1.41603858        0.65849307       -1.74513328
  7         1.10565976       -1.80515621       -1.51208019
 16         2.10706991       -0.79858083       -2.38093036
  6        -1.31664809        1.42424124        2.51182630
  7        -1.53173136        2.15369737        3.39093150
  6        -1.56100562       -1.39454035        2.70846587
  7        -1.89213496       -1.94301126        3.67823861
  6         1.86715020        1.94662575       -2.12246727
  7         2.24446718        2.99601225       -2.45036327
  6        -0.29160771       -0.12236362        9.60290360
  6        -1.14789174       -0.76213003        8.66306146
 16         1.43425522        0.13201981        9.39029397
 16        -0.61133578       -1.38407533        7.09466097
  6         1.51334069        0.35118500        7.63250156
  6         0.70154459       -0.25250831        6.72465491
  6        -1.00822431        0.20375949       10.73666177
  7        -2.40279741       -0.92518451        9.00436047
 16        -2.64530007       -0.33130139       10.54039829
  6         2.57103645        1.21429849        7.22335067
  7         3.46098233        1.90519807        6.93726133
  6         0.88050017       -0.04391828        5.32522395
  7         1.00802077        0.07388637        4.17596910
  6        -0.54731266        0.83783621       11.91593087
  7        -0.18429572        1.34883855       12.89480330

@aug-cc-pVTZ.gbs/N

