%Chk=BLIND00994
%Mem=2GB
%NProcShared=16
#T M05/Gen test Massage Symmetry=None SCF=(tight,maxcyc=60)

M05 opt

0 1
  6         0.54860683        0.85907189       -0.04620546
  6         1.07952280       -0.20179820       -0.83265923
 16        -0.35999523        0.65733012        1.44451893
 16         0.88008358       -1.91838811       -0.44778075
  6        -1.19204049       -0.87235573        1.11002833
  6        -0.69704440       -1.89242044        0.36030112
  6         0.91673420        2.07164355       -0.59343067
  7         1.78639643        0.12468944       -1.88698152
 16         1.89427707        1.78225578       -1.99539045
  6        -2.45935731       -0.97239461        1.75422547
  7        -3.47473887       -1.01719121        2.31830576
  6        -1.43028135       -3.10399408        0.19179347
  7        -1.97914671       -4.11888660        0.05155753
  6         0.61499040        3.37431745       -0.12742657
  7         0.38476764        4.45079075        0.24580074
  6        -0.31644906        0.10661542        7.17390134
  6         0.42433575       -1.08669650        7.40427314
 16        -1.32533527        0.91720711        8.36285313
 16         0.47465163       -1.93980432        8.95484197
  6        -0.43062745        0.54933384        9.84888451
  6         0.28115411       -0.58516062       10.08112011
  6        -0.17920480        0.49080255        5.85524009
  7         1.07970333       -1.59488841        6.38933750
 16         0.81953761       -0.66385306        5.03419771
  6        -0.55793055        1.56183012       10.84373869
  7        -0.71072683        2.40275725       11.63157617
  6         0.92741920       -0.80414246       11.33345007
  7         1.44505981       -1.03749522       12.34761023
  6        -0.75348691        1.60736944        5.20052880
  7        -1.22387657        2.51348927        4.64485233

@aug-cc-pVTZ.gbs/N

