%Chk=BLIND02622
%Mem=2GB
%NProcShared=16
#T M05/Gen test Massage Symmetry=None SCF=(tight,maxcyc=60)

M05 opt

0 1
  6        -0.69386359       -0.72687934       -0.17694249
  6         0.16303581       -1.00969492        0.92376884
 16        -1.17838430        0.88083968       -0.69559061
 16         0.91387904        0.22971902        1.94095902
  6         0.27559000        1.80581620       -0.27785954
  6         1.10253408        1.54588467        0.76915675
  6        -1.14346164       -1.90862389       -0.73069753
  7         0.37607464       -2.27002185        1.21368349
 16        -0.49020555       -3.23675022        0.17161257
  6         0.49560526        2.92080527       -1.13779112
  7         0.61973669        3.83088596       -1.85020782
  6         2.22326580        2.38321075        1.04626213
  7         3.12986670        3.05436350        1.32653863
  6        -2.01901172       -2.08767826       -1.82911459
  7        -2.74356018       -2.25324697       -2.72282172
  6         0.49240780        0.89338865        6.54447168
  6         1.33908678       -0.23187349        6.75122388
 16        -0.96954779        0.89454732        5.56917626
 16         1.03461383       -1.84019648        6.07655233
  6        -1.53447514       -0.76527052        5.83372097
  6        -0.73712959       -1.84788139        6.03331515
  6         1.03191043        2.00079450        7.16728178
  7         2.42631528       -0.04629701        7.45928856
 16         2.52942920        1.55119383        7.91569566
  6        -2.95293179       -0.88970245        5.77382872
  7        -4.11117336       -0.94505059        5.69255102
  6        -1.29336549       -3.15179065        6.18940552
  7        -1.70091168       -4.23543468        6.29210832
  6         0.52503027        3.32247472        7.20472959
  7         0.12854091        4.41461938        7.23807843

@aug-cc-pVTZ.gbs/N

