%Chk=BLIND01631
%Mem=2GB
%NProcShared=16
#T M05/Gen test Massage Symmetry=None SCF=(tight,maxcyc=60)

M05 opt

0 1
  6        -0.72600906        0.20631448       -0.68662514
  6        -0.61771543       -1.17626969       -0.36637499
 16        -0.36811215        1.53080961        0.41161850
 16        -0.06741118       -1.79205662        1.19969015
  6         0.93856823        0.81058467        1.36973358
  6         1.05429766       -0.50734921        1.68166470
  6        -1.22289130        0.34870925       -1.96652162
  7        -0.98218723       -2.03805992       -1.28416469
 16        -1.52840568       -1.22363560       -2.62925775
  6         1.87723328        1.77096119        1.84688612
  7         2.60244134        2.59349050        2.23251783
  6         2.12234023       -0.97775864        2.50138536
  7         2.95840142       -1.40070118        3.18916979
  6        -1.49664729        1.54356212       -2.67543115
  7        -1.73585548        2.51411588       -3.26864338
  6         0.85318844        0.06477200        8.31850237
  6        -0.21497022       -0.59888518        8.98515287
 16         1.11701478        0.06573746        6.58100090
 16        -1.48408040       -1.51537815        8.15811701
  6        -0.55739544        0.00208047        6.00098341
  6        -1.58639266       -0.62689057        6.62804339
  6         1.69018833        0.64737765        9.24872012
  7        -0.23159605       -0.54957553       10.29479105
 16         1.09411937        0.29767428       10.83844837
  6        -0.74007889        0.65334561        4.74656318
  7        -0.83449060        1.17558073        3.71237270
  6        -2.89001341       -0.65864709        6.05054327
  7        -3.96017918       -0.73473615        5.60346184
  6         2.87350645        1.39150852        9.02245496
  7         3.85184424        1.99661343        8.85572427

@aug-cc-pVTZ.gbs/N

