%Chk=BLIND02237
%Mem=2GB
%NProcShared=16
#T M05/Gen test Massage Symmetry=None SCF=(tight,maxcyc=60)

M05 opt

0 1
  6        -0.36387153        0.00293779       -0.95325641
  6         0.10152033       -1.27128260       -0.52244383
 16         0.27580101        1.54901593       -0.41568961
 16         1.39482314       -1.50645220        0.66357954
  6         0.73514439        1.14625528        1.24891533
  6         1.17980907       -0.06603071        1.67350931
  6        -1.34486151       -0.16057263       -1.91045348
  7        -0.44585959       -2.32940009       -1.06890757
 16        -1.57264451       -1.85467659       -2.19846954
  6         0.64009964        2.25494585        2.13934297
  7         0.56924457        3.19357925        2.82135464
  6         1.56956357       -0.27233008        3.02978139
  7         1.92499297       -0.47769548        4.11717328
  6        -2.06572120        0.83755178       -2.60993714
  7        -2.66025412        1.64340805       -3.20004070
  6         0.51317568       -0.43413001       10.09117276
  6        -0.63763571        0.29106615       10.51016004
 16         0.68556896       -1.25502954        8.54685377
 16        -2.08683346        0.51259956        9.51751854
  6        -0.27641876       -0.18912944        7.50639297
  6        -1.37614391        0.50946461        7.89396878
  6         1.44471001       -0.45514295       11.10955651
  7        -0.62584891        0.79373122       11.72055209
 16         0.80086961        0.39184393       12.47809929
  6         0.18755799       -0.15463194        6.15931274
  7         0.58859462       -0.17757015        5.06851648
  6        -2.10826028        1.30389960        6.96293678
  7        -2.75151652        1.93976648        6.23299099
  6         2.71910016       -1.07233443       11.12270374
  7         3.76395200       -1.58063919       11.15443441

@aug-cc-pVTZ.gbs/N

