%Chk=BLIND00131
%Mem=2GB
%NProcShared=16
#T M05/Gen test Massage Symmetry=None SCF=(tight,maxcyc=60)

M05 opt

0 1
  6        -0.97249316        0.25879917       -0.16849020
  6        -0.77262542       -1.14122811       -0.00785661
 16        -0.00991632        1.51330218        0.59844178
 16         0.51429422       -1.85334072        0.97769998
  6         1.57199275        0.71444238        0.65767684
  6         1.77660285       -0.62074547        0.80950619
  6        -2.08081661        0.48152618       -0.96052241
  7        -1.62004426       -1.94358122       -0.60448952
 16        -2.77329926       -1.04537584       -1.40082292
  6         2.66322185        1.62735998        0.57466992
  7         3.51941630        2.41215252        0.52750253
  6         3.09523453       -1.15763875        0.89256060
  7         4.15006241       -1.63505873        0.99421913
  6        -2.64041172        1.71891935       -1.36162079
  7        -3.11854011        2.72533309       -1.69271073
  6        -0.65101839       -0.75746004        6.04847922
  6         0.60058955       -0.87883014        5.38171575
 16        -0.89321332       -0.00369262        7.61745752
 16         2.12940094       -0.25363671        6.01925574
  6         0.35549171        1.25419204        7.56662433
  6         1.55370899        1.15153635        6.93307779
  6        -1.63350960       -1.38458861        5.30907134
  7         0.61600154       -1.52446535        4.24119934
 16        -0.91479172       -2.07722279        3.89184551
  6         0.00832049        2.41762699        8.31293586
  7        -0.30886155        3.33448598        8.95321563
  6         2.51017326        2.20768564        6.99363123
  7         3.33029437        3.02996912        7.04029340
  6        -3.01168946       -1.51286571        5.60795878
  7        -4.14364180       -1.63576281        5.84178803

@aug-cc-pVTZ.gbs/N

