%Chk=BLIND00062
%Mem=2GB
%NProcShared=16
#T M05/Gen test Massage Symmetry=None SCF=(tight,maxcyc=60)

M05 opt

0 1
  6        -0.67107749       -0.76639890        0.05828070
  6         0.47651566       -0.94703174        0.88061177
 16        -1.37687564        0.78561819       -0.36787489
 16         1.40844213        0.38098312        1.58946855
  6         0.07817205        1.79766522       -0.42002004
  6         1.18058660        1.63544314        0.35844654
  6        -1.18736035       -1.99688132       -0.29480317
  7         0.83721022       -2.17787758        1.15038569
 16        -0.22849724       -3.24056420        0.43913211
  6        -0.01979883        2.87066383       -1.35284657
  7        -0.15583025        3.74336512       -2.10854554
  6         2.28209913        2.53699773        0.27006442
  7         3.18933447        3.26332017        0.25257446
  6        -2.32468742       -2.27760799       -1.09032069
  7        -3.26052713       -2.52639814       -1.73328525
  6         0.30142187        0.92064191        4.65625521
  6        -0.53924168        0.96128665        3.50844884
 16         0.23341626       -0.30074937        5.91803777
 16        -1.78323473       -0.24530415        3.14622202
  6        -0.25838556       -1.71616912        4.96996605
  6        -1.05931551       -1.69105213        3.87200230
  6         1.12943282        2.02501248        4.66442489
  7        -0.39735622        1.97746814        2.69290992
 16         0.77135583        3.00650972        3.28121465
  6         0.23744887       -2.94332369        5.49848241
  7         0.64495945       -3.91957800        5.98020398
  6        -1.43435125       -2.89614910        3.20790032
  7        -1.78873035       -3.85414357        2.65329399
  6         2.10767564        2.38328434        5.62351337
  7         2.90816155        2.69759053        6.40551710

@aug-cc-pVTZ.gbs/N

