%Chk=BLIND00276
%Mem=2GB
%NProcShared=16
#T M05/Gen test Massage Symmetry=None SCF=(tight,maxcyc=60)

M05 opt

0 1
  6        -0.93677955        0.38901841        0.11053349
  6        -0.02103971        1.27413278       -0.52493463
 16        -0.88654518       -1.36465936        0.00754103
 16         1.35248888        0.74322914       -1.50786336
  6         0.86238851       -1.63012805       -0.11444013
  6         1.74750753       -0.79294689       -0.71721378
  6        -1.91176740        1.11829630        0.76080703
  7        -0.23694520        2.56034385       -0.39491179
 16        -1.61732443        2.80685242        0.50214095
  6         1.28155547       -2.86731401        0.45543670
  7         1.57149250       -3.89651970        0.91135905
  6         3.13202983       -1.12433214       -0.80220642
  7         4.26257907       -1.36693406       -0.92022697
  6        -3.01733364        0.64029018        1.50538871
  7        -3.93526030        0.26565287        2.11214521
  6         0.81469783        0.40324447        5.27723115
  6         0.99080967       -0.95495284        5.66467318
 16        -0.71640476        1.13528739        4.82077234
 16        -0.32621267       -2.13241512        5.78139106
  6        -1.83073429        0.22251069        5.85480835
  6        -1.67388116       -1.07367245        6.23289617
  6         2.03931919        1.03932192        5.24543125
  7         2.21280297       -1.35649838        5.91637458
 16         3.27580917       -0.09996210        5.66727365
  6        -2.97884391        0.97382346        6.24011743
  7        -3.90829548        1.61834499        6.50826813
  6        -2.65659920       -1.73083806        7.03060572
  7        -3.44455543       -2.31432834        7.65477734
  6         2.32306535        2.38368936        4.90289257
  7         2.57533129        3.48143472        4.61581603

@aug-cc-pVTZ.gbs/N

