%Chk=BLIND00621
%Mem=2GB
%NProcShared=16
#T M05/Gen test Massage Symmetry=None SCF=(tight,maxcyc=60)

M05 opt

0 1
  6         0.38775004       -0.80915552        0.48582524
  6         1.18653708        0.36337360        0.59958549
 16        -1.36197395       -0.83010545        0.32290290
 16         0.54084304        2.01149604        0.56270786
  6        -1.61781375        0.66491855       -0.59555849
  6        -0.86226582        1.79058485       -0.49723886
  6         1.18820520       -1.92840332        0.59472481
  7         2.47508634        0.20032941        0.77541905
 16         2.82702278       -1.42490021        0.85082661
  6        -2.75590594        0.60787954       -1.45146875
  7        -3.70606039        0.52202862       -2.11556902
  6        -1.18315609        2.95933283       -1.24890337
  7        -1.42435832        3.94279220       -1.81947788
  6         0.80520947       -3.29091568        0.54952770
  7         0.50760892       -4.41425216        0.52413123
  6         0.15259495        0.67766573        4.92975464
  6        -1.21929608        0.48580159        5.25675590
 16         1.49262814        0.52573893        6.05658468
 16        -1.80142205        0.02608013        6.86435469
  6         0.87251857       -0.74650282        7.12475468
  6        -0.43426667       -0.94122494        7.44419117
  6         0.26486302        1.07087212        3.61138905
  7        -2.10016459        0.69758484        4.30961360
 16        -1.32153971        1.18866699        2.92271111
  6         1.90166241       -1.55883197        7.68339048
  7         2.77691557       -2.17840926        8.13199824
  6        -0.82353560       -1.96831893        8.35385571
  7        -1.18315894       -2.77274494        9.11181084
  6         1.43945956        1.37785283        2.88251714
  7         2.39234107        1.64241188        2.27168062

@aug-cc-pVTZ.gbs/N

