%Chk=BLIND00513
%Mem=2GB
%NProcShared=16
#T M05/Gen test Massage Symmetry=None SCF=(tight,maxcyc=60)

M05 opt

0 1
  6         0.15603960        0.23158198        0.98139204
  6        -0.39053901        1.30316022        0.22060393
 16        -0.12764465       -1.47544007        0.67460938
 16        -1.43171944        1.08540910       -1.19471091
  6        -0.28749466       -1.46306216       -1.09129459
  6        -0.80630416       -0.44650838       -1.82960291
  6         0.88427534        0.73759023        2.03918766
  7        -0.12714211        2.52290652        0.62147930
 16         0.79932542        2.46858047        2.00337057
  6         0.14902294       -2.67497135       -1.70106352
  7         0.49447610       -3.69009001       -2.14982764
  6        -0.93384430       -0.55712217       -3.24573850
  7        -1.08345894       -0.61499545       -4.39690846
  6         1.58259213        0.02707272        3.04551116
  7         2.15329179       -0.53982057        3.88457600
  6        -0.51502174       -0.43423208        7.86393908
  6        -1.27484106       -0.29939230        9.05989873
 16         0.76876071        0.65149594        7.35245697
 16        -1.02425389        0.98195744       10.25569856
  6         1.43009685        1.13205641        8.92593027
  6         0.71618925        1.26349405       10.07514919
  6        -0.98722990       -1.50526355        7.13235569
  7        -2.23925696       -1.16360681        9.26212456
 16        -2.32620248       -2.21464751        7.97423061
  6         2.82378160        1.42648248        8.88070007
  7         3.95484437        1.67841297        8.78893369
  6         1.33822909        1.70333094       11.28078258
  7         1.79684976        2.08610559       12.27781658
  6        -0.53024246       -1.98489862        5.88084415
  7        -0.17428150       -2.38644536        4.84975350

@aug-cc-pVTZ.gbs/N

