%Chk=BLIND00746
%Mem=2GB
%NProcShared=16
#T M05/Gen test Massage Symmetry=None SCF=(tight,maxcyc=60)

M05 opt

0 1
  6         0.39904215       -0.41411545        0.84284201
  6         0.39123195        1.00914065        0.85322100
 16        -0.78199932       -1.42693214        0.02561498
 16        -0.80652436        2.00118336        0.00715988
  6        -1.17313181       -0.40425303       -1.36911256
  6        -1.18326739        0.95498465       -1.37288948
  6         1.43293543       -0.87831324        1.63080668
  7         1.31309761        1.61193592        1.56361639
 16         2.26672951        0.47628043        2.31978417
  6        -1.53601140       -1.15194681       -2.52685262
  7        -1.84760592       -1.80408992       -3.43724333
  6        -1.55977443        1.68410452       -2.53932361
  7        -1.88744995        2.31822672       -3.45662614
  6         1.79435223       -2.21939208        1.90658540
  7         2.09945205       -3.31400136        2.15120862
  6        -0.54215037        0.86439682        5.80925230
  6         0.29770301        0.71562604        4.66980497
 16        -1.28298281       -0.45695341        6.70016055
 16         0.76301014       -0.84581403        3.97699728
  6        -0.04136141       -1.70869563        6.51137546
  6         0.76752223       -1.86108756        5.42965091
  6        -0.74420093        2.20570547        6.06492766
  7         0.72021367        1.80999418        4.08525118
 16         0.09354394        3.13869452        4.86803938
  6         0.01521061       -2.61121726        7.61289440
  7         0.00741560       -3.33506136        8.52238985
  6         1.70431834       -2.93400638        5.35753863
  7         2.46054199       -3.80921395        5.24324240
  6        -1.51923894        2.79800211        7.09141157
  7        -2.15820983        3.30115218        7.92186453

@aug-cc-pVTZ.gbs/N

