%Chk=BLIND02077
%Mem=2GB
%NProcShared=16
#T M05/Gen test Massage Symmetry=None SCF=(tight,maxcyc=60)

M05 opt

0 1
  6         0.34645087       -0.20639608       -0.93727337
  6         0.44507849       -1.30384022       -0.03632075
 16         0.44698767        1.48833701       -0.48308317
 16         0.65563792       -1.13547037        1.71350914
  6        -0.28282267        1.43275069        1.13197383
  6        -0.19716210        0.39127266        2.00124355
  6         0.23164024       -0.67616375       -2.23011523
  7         0.40979567       -2.50964949       -0.54880407
 16         0.28337575       -2.40866065       -2.20552860
  6        -0.95966391        2.63715655        1.48180537
  7        -1.47852626        3.64709306        1.73080968
  6        -0.78266555        0.46719917        3.29945879
  7        -1.21871211        0.49615030        4.37646917
  6         0.12077673        0.06844998       -3.42946010
  7         0.03832808        0.66359700       -4.42449686
  6         0.66268623       -0.29621191        6.80184258
  6        -0.56399435       -1.01775146        6.78034642
 16         0.84499168        1.37541351        7.31267502
 16        -2.11811641       -0.34876357        7.30164109
  6        -0.40905674        1.46872929        8.56278574
  6        -1.58366255        0.78470976        8.55487713
  6         1.67441720       -1.08559459        6.29333628
  7        -0.53535860       -2.24176838        6.31256162
 16         1.01018743       -2.61509516        5.81978228
  6        -0.09558604        2.39241772        9.60183600
  7         0.19318277        3.17341412       10.41291566
  6        -2.54828988        0.96834249        9.58914743
  7        -3.37470172        1.10815021       10.39439485
  6         3.04205451       -0.76036866        6.12314606
  7         4.16586687       -0.50738933        5.96776534

@aug-cc-pVTZ.gbs/N

