%Chk=BLIND00415
%Mem=2GB
%NProcShared=16
#T M05/Gen test Massage Symmetry=None SCF=(tight,maxcyc=60)

M05 opt

0 1
  6        -1.00395442       -0.13544558        0.12181514
  6        -0.63505867        1.21656972       -0.12677534
 16        -0.14966283       -1.54590870       -0.48588242
 16         0.78023879        1.70102411       -1.07378399
  6         1.51455434       -0.93405771       -0.49778439
  6         1.88016832        0.35390392       -0.73257219
  6        -2.17452984       -0.17029528        0.85245999
  7        -1.41742530        2.15276778        0.35207293
 16        -2.71067826        1.45406114        1.13324044
  6         2.48661740       -1.95239318       -0.27602795
  7         3.24245434       -2.82069392       -0.11491503
  6         3.25448532        0.73342545       -0.76660364
  7         4.36142273        1.08169353       -0.83236864
  6        -2.89531389       -1.30222019        1.30454935
  7        -3.50463205       -2.21992366        1.67555830
  6        -0.98835171        0.14507290        5.50683990
  6        -0.25653045        1.35363526        5.33467337
 16        -0.63106333       -1.37757723        4.70534241
 16         1.16900103        1.51130117        4.29660315
  6         1.13442001       -1.26946650        4.58083249
  6         1.84524309       -0.12243611        4.41744371
  6        -2.06350123        0.36866711        6.34311878
  7        -0.69368019        2.41781481        5.96259216
 16        -2.07742977        2.03890383        6.80673698
  6         1.77710810       -2.54080479        4.62255353
  7         2.25356012       -3.60097574        4.63752156
  6         3.26452728       -0.15032701        4.28034369
  7         4.41752873       -0.12814898        4.13535432
  6        -3.05186152       -0.55138970        6.76950812
  7        -3.87663754       -1.29066728        7.12208305

@aug-cc-pVTZ.gbs/N

