%Chk=BLIND01956
%Mem=2GB
%NProcShared=16
#T M05/Gen test Massage Symmetry=None SCF=(tight,maxcyc=80)

M05 opt

0 1
  6         0.64399422       -0.20273677       -0.76503474
  6         0.43233604       -1.30385355        0.11164610
 16         0.58282648        1.49010679       -0.29700074
 16         0.03680881       -1.14264299        1.82983052
  6        -0.65140659        1.42826936        0.97459941
  6        -0.86457493        0.38325135        1.81729786
  6         0.97491715       -0.66722768       -2.02203173
  7         0.57416612       -2.50756663       -0.38717158
 16         1.01699846       -2.39982960       -1.98817413
  6        -1.40799371        2.63151045        1.07888976
  7        -1.98157347        3.64063088        1.14114117
  6        -1.85573247        0.45415166        2.84029435
  7        -2.63122371        0.47891421        3.70569962
  6         1.27661787        0.08227312       -3.18495635
  7         1.53591135        0.68147123       -4.14663427
  6        -0.51856210        0.29645314       12.64098497
  6        -1.32240578       -0.35905570       13.61564909
 16         0.90735798        1.26302201       12.98885449
 16        -0.99258600       -0.33223083       15.35492701
  6         1.53205635        0.41385205       14.41461197
  6         0.77592755       -0.21667388       15.35181544
  6        -1.06957381        0.11709899       11.38817956
  7        -2.38917879       -0.99120530       13.19109963
 16        -2.52522497       -0.81150216       11.54182248
  6         2.95067422        0.48485279       14.53111043
  7         4.10648271        0.59029588       14.59577501
  6         1.37717034       -0.83096994       16.48983538
  7         1.82122754       -1.31894917       17.44671344
  6        -0.60258614        0.60638545       10.14411778
  7        -0.23895185        1.00748461        9.11553356

@aug-cc-pVTZ.gbs/N

