%Chk=BLIND00046
%Mem=2GB
%NProcShared=16
#T M05/Gen test Massage Symmetry=None SCF=(tight,maxcyc=80)

M05 opt

0 1
  6         0.24115836        0.69022391        0.71171800
  6        -0.87796684        1.05880301       -0.08673982
 16         0.69800614       -0.95818725        1.11488969
 16        -1.98558227       -0.10005790       -0.83828342
  6         0.17573462       -1.80522368       -0.35272192
  6        -0.88973371       -1.46323931       -1.12438764
  6         0.87116554        1.82557340        1.18009360
  7        -1.11289387        2.33896015       -0.24122929
 16         0.01060424        3.22001219        0.61458387
  6         0.96914995       -2.95129246       -0.64955205
  7         1.62950791       -3.88938371       -0.83691584
  6        -1.25373353       -2.24242585       -2.26206703
  7        -1.60387567       -2.86383952       -3.17976615
  6         2.01186536        1.91737317        2.01408711
  7         2.94146494        2.01144247        2.70552873
  6        -0.20047301       -0.85392110        5.09405351
  6         1.02545220       -0.89870661        5.81580712
 16        -1.62597276        0.05420619        5.57548050
 16         1.32615552       -0.00996884        7.31724345
  6        -0.86790197        1.44357523        6.37492058
  6         0.30222553        1.41462001        7.06601194
  6        -0.12393955       -1.68822013        3.99706172
  7         1.97219650       -1.67531280        5.34845492
 16         1.42972079       -2.45682510        3.98248437
  6        -1.63795343        2.63817823        6.26987732
  7        -2.31210428        3.58063280        6.17771963
  6         0.80244041        2.58249448        7.71392878
  7         1.23251784        3.50125134        8.28124296
  6        -1.11623821       -1.95131073        3.02171812
  7        -1.92208791       -2.18611881        2.21762400

@aug-cc-pVTZ.gbs/N

