%Chk=BLIND01567
%Mem=2GB
%NProcShared=16
#T M05/Gen test Massage Symmetry=None SCF=(tight,maxcyc=60)

M05 opt

0 1
  6        -0.88785491       -0.04382894        0.50090078
  6        -0.56417708        1.25721381        0.02304402
 16        -0.41233986       -1.55148429       -0.26680843
 16         0.40904034        1.56981935       -1.42254028
  6         1.15414599       -1.08331873       -0.95315031
  6         1.47635999        0.15499871       -1.41183551
  6        -1.69173967        0.05884016        1.61827787
  7        -1.04975031        2.28005465        0.68325254
 16        -1.98587461        1.73517192        1.94725056
  6         2.07692326       -2.16658356       -1.03131088
  7         2.78571670       -3.08559280       -1.09632537
  6         2.75349954        0.41520137       -1.99075786
  7         3.77001050        0.66511307       -2.49590707
  6        -2.24992852       -0.98277603        2.39842488
  7        -2.72379113       -1.82492512        3.04443963
  6         0.48481615       -0.88456629       10.37181816
  6         0.78482548        0.10897742       11.34582634
 16        -1.04200902       -1.03301935        9.51433158
 16        -0.33486249        1.39087418       11.83329726
  6        -1.51649708        0.67191753        9.40399859
  6        -1.23568747        1.63046202       10.32594353
  6         1.54868842       -1.75626549       10.25511551
  7         1.95311806        0.04126161       11.93605260
 16         2.78956831       -1.28125104       11.36840116
  6        -2.28879229        0.96365669        8.24230240
  7        -2.93475049        1.14754106        7.29355714
  6        -1.70642575        2.96688616       10.16371550
  7        -2.09358030        4.06013355       10.08724565
  6         1.66802779       -2.89032275        9.41556761
  7         1.77954008       -3.82969213        8.74010770

@aug-cc-pVTZ.gbs/N

