%Chk=BLIND01604
%Mem=2GB
%NProcShared=16
#T M05/Gen test Massage Symmetry=None SCF=(tight,maxcyc=60)

M05 opt

0 1
  6        -0.22958549        0.20996464       -0.97175833
  6        -0.31383256       -1.17397837       -0.65015174
 16        -0.53505821        1.52976942        0.14775871
 16        -0.71385641       -1.79649079        0.95827842
  6         0.03101255        0.80403005        1.66334056
  6        -0.04250753       -0.51524244        1.98233732
  6         0.05827195        0.35792707       -2.31360349
  7        -0.11339716       -2.03175640       -1.62066836
 16         0.16846762       -1.21145155       -3.04143192
  6         0.55234868        1.76123313        2.58152386
  7         0.94572817        2.58124563        3.30541964
  6         0.39997942       -0.99029883        3.25216750
  7         0.72107318       -1.41705328        4.28449766
  6         0.21795312        1.55585247       -3.05160425
  7         0.34313453        2.52899220       -3.67484144
  6         0.26831256       -0.15748949        9.43627162
  6         0.06219643        1.21360934        9.75787821
 16         0.84221502       -1.38461389       10.55578862
 16         0.32365556        1.90583773       11.36630828
  6         0.13728621       -0.79282947       12.07137057
  6        -0.06583927        0.51278347       12.39036731
  6         0.01762544       -0.36221100        8.09442652
  7        -0.31265726        2.01075567        8.78736161
 16        -0.41731939        1.14971339        7.36659811
  6        -0.17304598       -1.83768489       12.98955397
  7        -0.38683324       -2.72168875       13.71344982
  6        -0.59763945        0.88515644       13.66019757
  7        -1.00064413        1.23559571       14.69252779
  6         0.11118548       -1.56710514        7.35642579
  7         0.19162595       -2.54496028        6.73318863

@aug-cc-pVTZ.gbs/N

