%Chk=BLIND00702
%Mem=2GB
%NProcShared=16
#T M05/Gen test Massage Symmetry=None SCF=(tight,maxcyc=60)

M05 opt

0 1
  6         0.42666584        0.33646749        0.86362885
  6        -0.42627736        1.28881168        0.23804505
 16         0.22644085       -1.40771137        0.78446645
 16        -1.82559308        0.86333614       -0.75968959
  6        -0.46762260       -1.57887612       -0.83821671
  6        -1.28213536       -0.67707481       -1.44728765
  6         1.39253402        0.99187832        1.60040462
  7        -0.17002349        2.55699714        0.44756741
 16         1.13630623        2.70124768        1.46914038
  6        -0.12582233       -2.81198024       -1.46568500
  7         0.16037111       -3.84017055       -1.92624014
  6        -1.82663731       -0.93397457       -2.74013802
  7        -2.31581660       -1.11412280       -3.77897216
  6         2.43009893        0.43235963        2.38498497
  7         3.28184215       -0.00960131        3.04095748
  6        -0.76946917       -0.52681616        6.00675122
  6         0.46308010       -1.23818968        5.98232442
 16        -0.92860374        1.21812052        6.14235652
 16         2.05537006       -0.46737667        6.05337591
  6         0.52856222        1.74247391        5.27873451
  6         1.71081324        1.07248505        5.24646217
  6        -1.82147429       -1.42004987        5.97988123
  7         0.40316683       -2.54673092        5.93771217
 16        -1.18855724       -3.03361414        5.95432891
  6         0.37090537        3.00049159        4.62786932
  7         0.20190323        4.03923644        4.13426985
  6         2.84008926        1.60684812        4.55861501
  7         3.79347005        2.01774128        4.03596981
  6        -3.21012752       -1.14376465        6.00172435
  7        -4.35343339       -0.93582607        6.02835423

@aug-cc-pVTZ.gbs/N

