%Chk=BLIND01151
%Mem=2GB
%NProcShared=16
#T M05/Gen test Massage Symmetry=None SCF=(tight,maxcyc=60)

M05 opt

0 1
  6         0.92846764        0.42071052       -0.04538084
  6        -0.10604602        1.26263921       -0.54213453
 16         0.92332219       -1.33548062       -0.11082438
 16        -1.59812968        0.66767797       -1.28664497
  6        -0.81273467       -1.65864792        0.04977320
  6        -1.81021767       -0.86295016       -0.41877431
  6         1.96794122        1.19418724        0.43057257
  7         0.08303038        2.55751929       -0.46867898
 16         1.57817776        2.86667206        0.19455233
  6        -1.09379327       -2.89599026        0.69867971
  7        -1.27247034       -3.92385691        1.21127866
  6        -3.17852867       -1.23967591       -0.27825862
  7        -4.30447158       -1.52036172       -0.21197014
  6         3.19290838        0.76740473        0.99844631
  7         4.20739649        0.43503601        1.45827325
  6         0.14810269        0.00635743        7.32953452
  6        -0.72011222        1.03729748        7.78690978
 16         1.47394111       -0.68444760        8.25336217
 16        -0.62296432        1.77686986        9.39258202
  6         0.81821393       -0.56486890        9.89648264
  6        -0.01207876        0.41318172       10.34556511
  6        -0.16398247       -0.31834390        6.02474522
  7        -1.62269890        1.48212195        6.94707140
 16        -1.46810607        0.69102403        5.49064357
  6         1.28593719       -1.59605216       10.76192224
  7         1.71304087       -2.44208130       11.43498253
  6        -0.44555445        0.44318189       11.70392469
  7        -0.80004514        0.52353830       12.80791986
  6         0.45294738       -1.27805120        5.18597951
  7         0.95336949       -2.05470105        4.48065077

@aug-cc-pVTZ.gbs/N

