%Chk=BLIND02039
%Mem=2GB
%NProcShared=16
#T M05/Gen test Massage Symmetry=None SCF=(tight,maxcyc=60)

M05 opt

0 1
  6         0.80629471        0.53706902        0.32024150
  6         0.03527057        1.20107812       -0.67496719
 16         0.99153889       -1.20477939        0.46224630
 16        -0.89900268        0.36743331       -1.92666930
  6        -0.59255818       -1.74584663       -0.12256544
  6        -1.33921883       -1.12087682       -1.07101401
  6         1.44367738        1.47026817        1.11282328
  7         0.05179050        2.51164546       -0.67558404
 16         1.05154605        3.05794597        0.53807221
  6        -1.02195723       -2.96686295        0.47394545
  7        -1.31807845       -3.97550742        0.97007204
  6        -2.58291303       -1.66715213       -1.50546763
  7        -3.58672329       -2.09074063       -1.91026866
  6         2.31378724        1.24669684        2.20739769
  7         3.03719282        1.08174253        3.10214366
  6        -0.80629462       -0.53706916        4.56817850
  6        -0.03527036       -1.20107813        5.56338720
 16        -0.99153910        1.20477921        4.42617369
 16         0.89900273       -0.36743314        6.81508931
  6         0.59255788        1.74584673        5.01098544
  6         1.33921862        1.12087706        5.95943402
  6        -1.44367712       -1.47026843        3.77559671
  7        -0.05179007       -2.51164546        5.56400405
 16        -1.05154551       -3.05794615        4.35034780
  6         1.02195671        2.96686313        4.41447455
  7         1.31807776        3.97550764        3.91834796
  6         2.58291273        1.66715259        6.39388764
  7         3.58672291        2.09074127        6.79868868
  6        -2.31378701       -1.24669725        2.68102230
  7        -3.03719261       -1.08174307        1.78627632

@aug-cc-pVTZ.gbs/N

