%Chk=BLIND02396
%Mem=2GB
%NProcShared=16
#T M05/Gen test Massage Symmetry=None SCF=(tight,maxcyc=60)

M05 opt

0 1
  6        -0.10573664        0.68068325        0.75272769
  6        -0.73405571        1.07040279       -0.46347973
 16         0.10508383       -0.97688026        1.29729593
 16        -1.38416745       -0.06770514       -1.65371222
  6         0.30489351       -1.80400031       -0.25836168
  6        -0.28811464       -1.44178384       -1.42660164
  6         0.24867010        1.80380109        1.47266199
  7        -0.86359549        2.35473592       -0.69056536
 16        -0.24890599        3.21392455        0.59585161
  6         1.13831352       -2.95712676       -0.17589863
  7         1.80481621       -3.90163522       -0.05395214
  6        -0.09772631       -2.20602593       -2.61556264
  7         0.00561466       -2.81468136       -3.60033943
  6         0.88314785        1.87381471        2.73666536
  7         1.39495740        1.95002045        3.77750136
  6         0.27817207        0.81031061        8.45527813
  6         0.80938472       -0.42016198        8.93442006
 16        -0.08289175        1.17044242        6.77347712
 16         1.16653640       -1.81506214        7.90423340
  6        -0.56405214       -0.43564379        6.19633430
  6        -0.06573852       -1.61770626        6.64584059
  6         0.15685811        1.70225629        9.50170972
  7         1.07800422       -0.50308087       10.21458725
 16         0.73044596        0.94769652       10.95307566
  6        -1.52538260       -0.38762432        5.14532167
  7        -2.29071086       -0.29685722        4.27513376
  6        -0.48775204       -2.85650108        6.07906559
  7        -0.78059449       -3.88662399        5.62738405
  6        -0.31526173        3.03687387        9.46904155
  7        -0.69112824        4.13674800        9.45918376

@aug-cc-pVTZ.gbs/N

