%Chk=BLIND00456
%Mem=2GB
%NProcShared=16
#T M05/Gen test Massage Symmetry=None SCF=(tight,maxcyc=60)

M05 opt

0 1
  6        -0.68102282        0.75534875        0.08225018
  6         0.28595331        0.96573287       -0.94074657
 16        -1.26982349       -0.81367945        0.61138240
 16         1.08496095       -0.33729520       -1.83421899
  6         0.18312697       -1.80101141        0.37006805
  6         1.11439141       -1.61034622       -0.60154782
  6        -1.13846538        1.97235915        0.54586123
  7         0.57053761        2.20580549       -1.25553492
 16        -0.35544151        3.24122550       -0.33826454
  6         0.28053196       -2.88678080        1.28805866
  7         0.30387409       -3.77080549        2.04247798
  6         2.22562329       -2.49375403       -0.73828215
  7         3.13008146       -3.20446290       -0.90493882
  6        -2.10723030        2.22373439        1.54759646
  7        -2.90684620        2.44851000        2.36073006
  6        -0.72770000       -0.53391217        6.35672728
  6         0.52303311       -1.20941937        6.28473166
 16        -0.93319647        1.20936739        6.44195767
 16         2.09194652       -0.39040437        6.23663327
  6         0.45509855        1.74482436        5.47756935
  6         1.65389990        1.10890887        5.39926941
  6        -1.75112879       -1.45786543        6.42158948
  7         0.50153358       -2.51991000        6.28820999
 16        -1.07066082       -3.05214698        6.41408864
  6         0.22127840        2.97362911        4.79459302
  7        -0.00802224        3.98868610        4.27664171
  6         2.72474585        1.65107716        4.62901982
  7         3.63337525        2.07067858        4.03804317
  6        -3.14420301       -1.22163230        6.51489835
  7        -4.29004453       -1.04633947        6.60101194

@aug-cc-pVTZ.gbs/N

