%Chk=BLIND01808
%Mem=2GB
%NProcShared=16
#T M05/Gen test Massage Symmetry=None SCF=(tight,maxcyc=60)

M05 opt

0 1
  6        -0.44064607        0.92015140       -0.01616615
  6        -0.16422364        0.39537572       -1.31000840
 16        -0.81775676       -0.04037588        1.40639897
 16        -0.12389635       -1.33290357       -1.69212452
  6         0.15523807       -1.48749507        1.08507487
  6         0.42749466       -1.99830530       -0.14480045
  6        -0.43796586        2.29962764       -0.06455361
  7         0.03896970        1.25487367       -2.27842761
 16        -0.12374720        2.80454116       -1.69279055
  6         0.61371850       -2.12841142        2.27255607
  7         0.94411828       -2.62822030        3.26865852
  6         1.18343642       -3.19872569       -0.29137768
  7         1.76969160       -4.18860685       -0.45680525
  6        -0.67671577        3.21667906        0.98767432
  7        -0.87928772        3.98361131        1.83730686
  6-Bq       -0.02698916      -1.01986232       8.00147388
  6-Bq       -0.03395297      -0.42677692       6.70763159
 16-Bq        0.74634042      -0.33664589       9.42403963
 16-Bq        0.71759015       1.13006572       6.32551604
  6-Bq        0.53954486       1.39485875       9.10271527
  6-Bq        0.52992636       1.97361443       7.87283991
  6-Bq       -0.65789391      -2.24661455       7.95308594
  7-Bq       -0.60643517      -1.09930015       5.73921192
 16-Bq       -1.16765109      -2.55291058       6.32484857
  6-Bq        0.42343186       2.17427916      10.29019633
  7-Bq        0.35704146       2.76973312      11.28629869
  6-Bq        0.40394430       3.38662027       7.72626251
  7-Bq        0.33308660       4.53489681       7.56083482
  6-Bq       -0.86319421      -3.17172908       9.00531373
  7-Bq       -1.03230150      -3.94672803       9.85494616

@aug-cc-pVTZ.gbs/N

