%Chk=BLIND00582
%Mem=2GB
%NProcShared=16
#T M05/Gen test Massage Symmetry=None SCF=(tight,maxcyc=60)

M05 opt

0 1
  6         0.54739659        0.44901728       -0.73474442
  6         0.59697792       -0.97293884       -0.77228282
 16        -0.81467468        1.39958655       -0.16055232
 16        -0.70976761       -2.02670931       -0.20963529
  6        -1.44419545        0.32865183        1.10472414
  6        -1.40227492       -1.02978745        1.08171428
  6         1.70239282        0.96833738       -1.28391975
  7         1.66777987       -1.52545526       -1.28800446
 16         2.71176670       -0.33884816       -1.81047165
  6        -2.06590768        1.03352660        2.17603881
  7        -2.58293996        1.65104422        3.01421696
  6        -1.98194106       -1.80106611        2.13198011
  7        -2.46633536       -2.46936560        2.95031018
  6         2.06058655        2.32761705       -1.45487144
  7         2.36684532        3.43792894       -1.61142493
  6         0.28484492       -0.86401825        7.38272000
  6        -0.18163431       -1.05398643        6.05150406
 16         1.09733173        0.57753642        7.97458312
 16        -0.04524518        0.15944682        4.76948764
  6         0.30464071        1.82112895        6.99008292
  6        -0.14616247        1.65260467        5.71885512
  6         0.06644834       -2.01088895        8.11912597
  7        -0.71369027       -2.21557089        5.75910361
 16        -0.66164575       -3.20589829        7.09606281
  6         0.21249684        3.08156683        7.64879038
  7         0.18187973        4.09494112        8.21740990
  6        -0.72855703        2.73517364        4.99580399
  7        -1.18255940        3.59530002        4.35941528
  6         0.38627158       -2.25853035        9.47616513
  7         0.65002827       -2.48238236       10.58585815

@aug-cc-pVTZ.gbs/N

