%Chk=BLIND02280
%Mem=2GB
%NProcShared=16
#T M05/Gen test Massage Symmetry=None SCF=(tight,maxcyc=60)

M05 opt

0 1
  6         0.51317345       -0.05433803       -0.88023252
  6         0.46332225       -1.28679348       -0.17002475
 16         0.50515424        1.54045155       -0.14192465
 16         0.35157135       -1.41274228        1.59242723
  6        -0.50372832        1.23061542        1.28295417
  6        -0.56142158        0.05878252        1.96933830
  6         0.64087076       -0.30251472       -2.23204795
  7         0.53890477       -2.39082535       -0.87235013
 16         0.71262919       -2.01592185       -2.48485876
  6        -1.25019585        2.37125788        1.69865920
  7        -1.82023332        3.33427904        2.01304838
  6        -1.37303074       -0.07134758        3.13479901
  7        -1.99698322       -0.21365083        4.10503570
  6         0.73779395        0.63141038       -3.29202825
  7         0.82790822        1.38378312       -4.17345357
  6         0.51317345        0.05433804        8.70562748
  6         0.46332222        1.28679349        9.41583525
 16         0.50515427       -1.54045154        9.44393535
 16         0.35157133        1.41274228       11.17828723
  6        -0.50372829       -1.23061544       10.86881417
  6        -0.56142158       -0.05878253       11.55519830
  6         0.64087076        0.30251474        7.35381205
  7         0.53890472        2.39082536        8.71350987
 16         0.71262914        2.01592187        7.10100124
  6        -1.25019580       -2.37125790       11.28451920
  7        -1.82023324       -3.33427908       11.59890838
  6        -1.37303074        0.07134755       12.72065901
  7        -1.99698322        0.21365078       13.69089570
  6         0.73779396       -0.63141036        6.29383175
  7         0.82790825       -1.38378310        5.41240643

@aug-cc-pVTZ.gbs/N

