%Chk=BLIND01556
%Mem=2GB
%NProcShared=16
#T M05/Gen test Massage Symmetry=None SCF=(tight,maxcyc=60)

M05 opt

0 1
  6        -0.16653459        0.91163524        0.42696174
  6        -1.21194211        0.48652094       -0.44034881
 16         0.86178823       -0.15541335        1.37167129
 16        -1.62901963       -1.20865379       -0.73533575
  6         0.94701178       -1.55947778        0.29210559
  6        -0.04298351       -1.97536666       -0.54131497
  6        -0.12988474        2.29085381        0.46838798
  7        -1.92515344        1.41709819       -1.02619487
 16        -1.39503743        2.91742497       -0.53740714
  6         2.17320260       -2.27721214        0.40347490
  7         3.17878312       -2.84244219        0.54670839
  6         0.11003534       -3.14959319       -1.33612263
  7         0.17961218       -4.11524857       -1.97923606
  6         0.74161989        3.12527570        1.20959526
  7         1.44228311        3.82525606        1.81803135
  6        -0.78714883       -0.48116096        5.60893186
  6        -0.94692301       -0.27393403        7.00798721
 16         0.10962247        0.57259452        4.52545724
 16        -0.23211615        1.07883470        7.89886109
  6         1.38182040        1.14981149        5.61745316
  6         1.24279405        1.35082315        6.95458069
  6        -1.50262407       -1.59572524        5.22015831
  7        -1.69929674       -1.12523219        7.66150480
 16        -2.31421475       -2.25359562        6.60339861
  6         2.60463081        1.44257121        4.94654623
  7         3.57243387        1.68973848        4.35202239
  6         2.31906760        1.86472337        7.73655494
  7         3.15850559        2.30864384        8.40678223
  6        -1.62939637       -2.15087459        3.92366056
  7        -1.75209835       -2.61464833        2.86490938

@aug-cc-pVTZ.gbs/N

