%Chk=BLIND00167
%Mem=2GB
%NProcShared=16
#T M05/Gen test Massage Symmetry=None SCF=(tight,maxcyc=60)

M05 opt

0 1
  6        -1.00074412        0.16393794       -0.11289138
  6        -0.66630800       -1.20131493        0.11085788
 16        -0.10558846        1.54099174        0.51235723
 16         0.74148391       -1.73874168        1.04031082
  6         1.54185488        0.88527327        0.50309314
  6         1.87462400       -0.41563998        0.71412268
  6        -2.17448986        0.24190038       -0.83507281
  7        -1.47618627       -2.10838777       -0.37819842
 16        -2.75526767       -1.36280781       -1.13910459
  6         2.53919505        1.88113382        0.29175453
  7         3.31678542        2.73173259        0.14000480
  6         3.23857471       -0.83185314        0.73275024
  7         4.33627081       -1.21029415        0.78539812
  6        -2.86778330        1.39986609       -1.26359125
  7        -3.45483206        2.33941591       -1.61532385
  6         0.99699371        0.15228872        5.19227999
  6         0.58449972        0.38300622        3.84972839
 16        -0.00428930        0.39862045        6.61539968
 16        -1.03461499        0.93177898        3.38939768
  6        -1.60085349       -0.00872755        5.96028711
  6        -2.00687314        0.20518073        4.68082029
  6         2.32447231       -0.22551245        5.21151701
  7         1.47693072        0.20690753        2.90610973
 16         2.93087756       -0.23184822        3.58761458
  6        -2.48091298       -0.56232522        6.93502532
  7        -3.16898971       -0.98730390        7.76997235
  6        -3.33309344       -0.11684076        4.26683502
  7        -4.41163091       -0.33647303        3.89341205
  6         3.13340770       -0.53815803        6.33091180
  7         3.81445349       -0.78900593        7.23884786

@aug-cc-pVTZ.gbs/N

