%Chk=BLIND00707
%Mem=2GB
%NProcShared=16
#T M05/Gen test Massage Symmetry=None SCF=(tight,maxcyc=60)

M05 opt

0 1
  6        -0.02923875       -0.04249816        1.01904264
  6        -0.27219541        1.25771099        0.49344310
 16        -0.44046082       -1.55145182        0.21749921
 16        -1.00816109        1.56780351       -1.08667889
  6        -0.22000885       -1.08540253       -1.47906233
  6        -0.44726476        0.15210513       -1.99342950
  6         0.51278572        0.06215619        2.28417512
  7         0.04204094        2.28173267        1.24875439
 16         0.64175989        1.73911873        2.70368538
  6         0.18997669       -2.16952915       -2.30832164
  7         0.50067612       -3.08920610       -2.94773792
  6        -0.28403996        0.41055980       -3.38644809
  7        -0.19215080        0.65902800       -4.51814861
  6         0.89345481       -0.97807534        3.16631902
  7         1.20265258       -1.81906812        3.90674039
  6        -0.68260337        0.06439490        8.85649584
  6        -0.88759828        1.01559581        7.81773670
 16         0.01375568       -1.53480753        8.64166497
 16        -0.43895984        0.74960159        6.12582684
  6         1.15092475       -1.21587034        7.31907371
  6         0.96790619       -0.31021100        6.32211362
  6        -1.17909890        0.56077728       10.04494017
  7        -1.47601019        2.14181975        8.13906376
 16        -1.86634968        2.12593124        9.75717981
  6         2.30420637       -2.05219678        7.35893898
  7         3.21460256       -2.77235669        7.42010679
  6         1.92627435       -0.16472976        5.27602203
  7         2.66542882       -0.03283375        4.38879024
  6        -1.19282084       -0.05780161       11.31865141
  7        -1.22096942       -0.55412068       12.36935163

@aug-cc-pVTZ.gbs/N

