%Chk=BLIND01588
%Mem=2GB
%NProcShared=16
#T M05/Gen test Massage Symmetry=None SCF=(tight,maxcyc=60)

M05 opt

0 1
  6        -0.48902458        0.77532349       -0.44814880
  6        -0.58586622       -0.45175917       -1.16279311
 16        -0.34200418        0.92149010        1.29699789
 16        -0.54110657       -2.04966361       -0.40168449
  6         0.58650374       -0.54343130        1.66578021
  6         0.50432409       -1.72057304        0.99107444
  6        -0.60001950        1.83410643       -1.32676251
  7        -0.75146678       -0.38188093       -2.46108179
 16        -0.83720191        1.21363277       -2.92788196
  6         1.43165417       -0.39836877        2.80409795
  7         2.08645777       -0.23957746        3.75130996
  6         1.26275426       -2.85693367        1.40023227
  7         1.83928529       -3.81573158        1.71526348
  6        -0.56957871        3.22065409       -1.04088247
  7        -0.55618419        4.36241552       -0.82340297
  6        -0.48878070        0.77566078        8.18929892
  6        -0.58781050       -0.45159705        7.47525553
 16        -0.33939745        0.92235052        9.93420104
 16        -0.54375798       -2.04925204        8.23692884
  6         0.58804434       -0.54339834       10.30237774
  6         0.50377931       -1.72071512        9.62823484
  6        -0.59978101        1.83421833        7.31041435
  7        -0.75498203       -0.38204927        6.17715044
 16        -0.83963974        1.21337204        5.70983813
  6         1.43478698       -0.39877851       11.43956799
  7         2.09095538       -0.24030490       12.38588832
  6         1.26153831       -2.85770980       10.03687444
  7         1.83746489       -3.81698809       10.35154868
  6        -0.56752823        3.22084418        7.59571584
  7        -0.55266431        4.36267526        7.81273373

@aug-cc-pVTZ.gbs/N

