%Chk=BLIND01936
%Mem=2GB
%NProcShared=16
#T M05/Gen test Massage Symmetry=None SCF=(tight,maxcyc=60)

M05 opt

0 1
  6        -0.33271694        0.09423800       -0.95996226
  6         0.02972031       -1.23642341       -0.60810133
 16         0.39514101        1.55033102       -0.29774436
 16         1.26582849       -1.64386697        0.59215475
  6         0.77309780        1.00261521        1.34581219
  6         1.11934482       -0.26451351        1.69530018
  6        -1.29215559        0.06702660       -1.95195029
  7        -0.57209537       -2.21290297       -1.24226658
 16        -1.62737488       -1.58280309       -2.36488683
  6         0.72705026        2.05152750        2.30953014
  7         0.69990253        2.94379804        3.05404966
  6         1.45116828       -0.59061769        3.04344379
  7         1.75726439       -0.89489667        4.12263126
  6        -1.91998471        1.15956212       -2.59798834
  7        -2.43857579        2.04427543       -3.14520088
  6         0.33271694       -0.09423800        8.96159227
  6        -0.02972031        1.23642341        8.60973133
 16        -0.39514101       -1.55033102        8.29937436
 16        -1.26582849        1.64386697        7.40947525
  6        -0.77309780       -1.00261521        6.65581781
  6        -1.11934482        0.26451351        6.30632982
  6         1.29215559       -0.06702660        9.95358029
  7         0.57209537        2.21290297        9.24389659
 16         1.62737488        1.58280309       10.36651683
  6        -0.72705026       -2.05152750        5.69209986
  7        -0.69990253       -2.94379804        4.94758034
  6        -1.45116828        0.59061769        4.95818622
  7        -1.75726439        0.89489667        3.87899874
  6         1.91998471       -1.15956212       10.59961834
  7         2.43857579       -2.04427543       11.14683088

@aug-cc-pVTZ.gbs/N

