%Chk=BLIND00346
%Mem=2GB
%NProcShared=16
#T M05/Gen test Massage Symmetry=None SCF=(tight,maxcyc=60)

M05 opt

0 1
  6        -0.36234621       -0.89448321       -0.33123092
  6        -0.72201435       -0.59381260        1.01266739
 16        -0.09503958        0.29424519       -1.59771763
 16        -0.92943665        1.04845366        1.64078033
  6         0.56769158        1.63546055       -0.64585060
  6         0.23378163        1.93274259        0.63780495
  6        -0.32536494       -2.26311756       -0.50666076
  7        -0.94327290       -1.60395652        1.81797103
 16        -0.76028482       -3.03306804        0.98426094
  6         1.48653993        2.44132999       -1.37891391
  7         2.21055714        3.08196199       -2.02434612
  6         0.79212123        3.06634965        1.29896595
  7         1.19933791        3.99533369        1.86649512
  6        -0.02522749       -2.99077382       -1.68377687
  7         0.20947860       -3.60406781       -2.64288032
  6         0.91315914       -0.43885969        6.19438450
  6         0.96270447        0.80317800        5.50104887
 16        -0.26557764       -0.86397618        7.42660697
 16        -0.18924837        2.12463556        5.74872388
  6        -1.68143962        0.02715353        6.83894654
  6        -1.64794885        1.21279282        6.17503247
  6         1.97379524       -1.23112584        5.80365617
  7         1.94594995        0.98139319        4.65291698
 16         2.93113077       -0.36037021        4.65034794
  6        -2.91613392       -0.60252006        7.17080614
  7        -3.89724862       -1.14094422        7.48498188
  6        -2.85143550        1.87195861        5.78636518
  7        -3.80607641        2.45817419        5.47662632
  6         2.30994058       -2.53253099        6.24921132
  7         2.60602187       -3.59699739        6.61024189

@aug-cc-pVTZ.gbs/N

