%Chk=BLIND01145
%Mem=2GB
%NProcShared=16
#T M05/Gen test Massage Symmetry=None SCF=(tight,maxcyc=60)

M05 opt

0 1
  6         0.73655805        0.69970313        0.09490351
  6        -0.26309913        1.04681969       -0.85694852
 16         1.23751951       -0.93905677        0.48480123
 16        -1.19712750       -0.13274327       -1.79012084
  6        -0.29259459       -1.80602471        0.25843975
  6        -1.25550382       -1.48457812       -0.64550824
  6         1.30257007        1.84714505        0.61289062
  7        -0.47375386        2.32244574       -1.07203639
 16         0.56882259        3.22538958       -0.14002585
  6        -0.42111312       -2.94468130        1.10580850
  7        -0.46965001       -3.87605809        1.79962005
  6        -2.43251952       -2.27868580       -0.77955663
  7        -3.39270909       -2.91284837       -0.94326355
  6         2.33595585        1.96094906        1.57431192
  7         3.18945748        2.07305619        2.35537714
  6         0.33511754       -0.92491551        7.24984921
  6         0.86963036       -0.46173916        6.01470130
 16        -0.13417012        0.10048634        8.59775010
 16         1.12114933        1.24582115        5.62028487
  6        -0.69193154        1.54118214        7.72745137
  6        -0.19116921        1.99353411        6.54751118
  6         0.30817274       -2.30496821        7.25548325
  7         1.22511541       -1.36576032        5.13479440
 16         0.96406851       -2.88628198        5.75992262
  6        -1.72303015        2.24551181        8.41436114
  7        -2.54501398        2.79792894        9.02294221
  6        -0.68063349        3.19397557        5.95311490
  7        -1.02835060        4.18123049        5.44779651
  6        -0.13374703       -3.17145003        8.28460161
  7        -0.48356779       -3.89762958        9.12208870

@aug-cc-pVTZ.gbs/N

