%Chk=BLIND02564
%Mem=2GB
%NProcShared=16
#T M05/Gen test Massage Symmetry=None SCF=(tight,maxcyc=60)

M05 opt

0 1
  6        -0.43269342       -0.92343657       -0.03391484
  6        -0.48507777       -0.31392835        1.25122417
 16        -0.44293743       -0.06034912       -1.56476158
 16        -0.53743796        1.43547458        1.51849952
  6         0.42270457        1.41786068       -1.10685133
  6         0.38213682        2.00932376        0.11632884
  6        -0.44485127       -2.29690448        0.10298406
  7        -0.53036398       -1.10741925        2.29342443
 16        -0.54568279       -2.69320785        1.78750275
  6         1.16289783        1.98874208       -2.18262921
  7         1.73122989        2.42911445       -3.09600966
  6         1.08041135        3.22721312        0.36752625
  7         1.60921342        4.23379452        0.60854153
  6        -0.41673422       -3.28203002       -0.91382739
  7        -0.40356770       -4.10401253       -1.73557390
  6        -0.43593695       -0.92197691        6.86772158
  6        -0.47493565       -0.31509268        8.15457716
 16        -0.45702660       -0.05554405        5.33887694
 16        -0.51930667        1.43388466        8.42605060
  6         0.41738921        1.41890260        5.79222688
  6         0.38959771        2.00783850        7.01698244
  6        -0.45128121       -2.29569268        7.00178407
  7        -0.51349608       -1.11069302        9.19543893
 16        -0.53839864       -2.69532407        8.68628159
  6         1.14981317        1.98975280        4.71112798
  7         1.71140931        2.43029066        3.79366997
  6         1.09398043        3.22294833        7.26456074
  7         1.62813011        4.22731408        7.50301347
  6        -0.43536701       -3.27869589        5.98265706
  7        -0.43214479       -4.09893255        5.15906896

@aug-cc-pVTZ.gbs/N

