%Chk=BLIND00392
%Mem=2GB
%NProcShared=16
#T M05/Gen test Massage Symmetry=None SCF=(tight,maxcyc=60)

M05 opt

0 1
  6        -0.93416900        0.40118101        0.08655046
  6         0.00621548        1.26996526       -0.53531578
 16        -0.90313484       -1.35375764       -0.00144864
 16         1.39461679        0.71452191       -1.48316219
  6         0.84469403       -1.64129340       -0.08231595
  6         1.75315511       -0.81980091       -0.67180097
  6        -1.91434651        1.14745339        0.70915211
  7        -0.19675950        2.55970619       -0.42029615
 16        -1.59358520        2.83016612        0.44379080
  6         1.23593285       -2.87875184        0.50651208
  7         1.50305843       -3.90762349        0.97689499
  6         3.13506179       -1.16854794       -0.72329248
  7         4.26489692       -1.42572679       -0.81416467
  6        -3.04193381        0.68891519        1.43265611
  7        -3.97761760        0.33034579        2.02173992
  6        -0.76314270        0.07262156        6.24182607
  6        -0.30048328       -1.25860651        6.04281666
 16         0.22618272        1.51886317        6.10715225
 16         1.35981825       -1.67501504        5.59049917
  6         1.35867049        1.01734365        4.83826624
  6         1.80736408       -0.24982936        4.63679494
  6        -2.08862182        0.05067349        6.62643836
  7        -1.15692852       -2.23060009        6.24178921
 16        -2.61731341       -1.59702734        6.72838804
  6         1.81765454        2.10291681        4.03704578
  7         2.18118864        3.02299514        3.42672468
  6         2.75767570       -0.53922039        3.61351463
  7         3.55266991       -0.81583740        2.81202017
  6        -2.93232990        1.14487745        6.93634610
  7        -3.63632847        2.03048616        7.20314030

@aug-cc-pVTZ.gbs/N

