%Chk=BLIND00197
%Mem=2GB
%NProcShared=16
#T M05/Gen test Massage Symmetry=None SCF=(tight,maxcyc=60)

M05 opt

0 1
  6        -0.81502880        0.29164262        0.54016807
  6        -0.32047656        1.29728334       -0.33728934
 16        -0.71514045       -1.43950460        0.25439150
 16         0.51400562        0.96100507       -1.86213187
  6         0.81711160       -1.53149685       -0.63322506
  6         1.30116535       -0.57842809       -1.47286544
  6        -1.44813294        0.88351206        1.61449248
  7        -0.53073963        2.54671773       -0.00178501
 16        -1.39268173        2.60523903        1.42108110
  6         1.51258809       -2.75758495       -0.42320108
  7         2.03046011       -3.78191741       -0.23950405
  6         2.52609992       -0.77243747       -2.17702280
  7         3.50352271       -0.89995737       -2.79290388
  6        -2.08866113        0.25763146        2.71138151
  7        -2.62674096       -0.23919879        3.61400309
  6        -0.89754090        0.41247540        7.58536148
  6        -0.43512181       -0.56822539        8.50743588
 16         0.13223148        1.45744809        6.61782979
 16         1.27380488       -0.91976572        8.80839652
  6         1.51730444        0.38384539        6.34751109
  6         1.96835530       -0.55697657        7.21874655
  6        -2.27635193        0.46764645        7.61911783
  7        -1.33876348       -1.22266486        9.19518638
 16        -2.85591237       -0.66741622        8.79409400
  6         2.17862443        0.62502939        5.10832757
  7         2.69826155        0.87457043        4.09892203
  6         3.12424315       -1.33841847        6.92342678
  7         4.07756172       -1.97683043        6.73757736
  6        -3.14109190        1.30673078        6.87525579
  7        -3.86525777        1.99398984        6.27997880

@aug-cc-pVTZ.gbs/N

