%Chk=BLIND01991
%Mem=2GB
%NProcShared=16
#T M05/Gen test Massage Symmetry=None SCF=(tight,maxcyc=60)

M05 opt

0 1
  6         0.63931743       -0.01758644       -0.79503010
  6         0.49558741       -1.27740382       -0.14847886
 16         0.50617855        1.54663240       -0.00508701
 16         0.12316752       -1.47353683        1.57123729
  6        -0.70115608        1.17699419        1.23983578
  6        -0.84965322       -0.02133150        1.86402181
  6         0.96971853       -0.21151049       -2.12112655
  7         0.68554480       -2.35244367       -0.87378261
 16         1.09451636       -1.91328184       -2.42645644
  6        -1.51200616        2.29762586        1.58305067
  7        -2.13161646        3.24541439        1.84567778
  6        -1.82489550       -0.20042594        2.88909235
  7        -2.58533363       -0.38328310        3.74887327
  6         1.21501332        0.76404906       -3.11776212
  7         1.42862650        1.55109550       -3.94602731
  6        -0.55406699        0.79311143        6.61817041
  6        -0.21095173        0.86071148        5.23848610
 16        -0.80836629       -0.68969425        7.52654027
 16         0.04950367       -0.55668588        4.21002315
  6         0.34131953       -1.76694051        6.71297706
  6         0.67841806       -1.71248749        5.39728579
  6        -0.72677194        2.06870579        7.11650289
  7        -0.11707868        2.05114849        4.69820135
 16        -0.47655865        3.21095430        5.83685911
  6         0.87557450       -2.76845901        7.57473222
  7         1.26516744       -3.58042679        8.30965991
  6         1.58114139       -2.65962951        4.82987541
  7         2.28881140       -3.42728200        4.31915148
  6        -1.08200133        2.45852986        8.43066335
  7        -1.38191025        2.79624451        9.50169060

@aug-cc-pVTZ.gbs/N

