%Chk=BLIND01140
%Mem=2GB
%NProcShared=16
#T M05/Gen test Massage Symmetry=None SCF=(tight,maxcyc=60)

M05 opt

0 1
  6         0.59275698       -0.82449796       -0.09975564
  6        -0.19835628       -0.82838787        1.08343975
 16         1.20836168        0.61334474       -0.90110192
 16        -0.72304355        0.63466832        1.93123582
  6        -0.09601576        1.76169459       -0.54894542
  6        -0.85926777        1.76834932        0.57579728
  6         0.86285690       -2.12313220       -0.48172207
  7        -0.52515284       -1.99378359        1.58634814
 16         0.14199032       -3.20733216        0.66269411
  6        -0.26031835        2.74981319       -1.56270868
  7        -0.34034770        3.54796683       -2.40398098
  6        -1.85458354        2.76854798        0.78289890
  7        -2.65587941        3.58019134        1.00669817
  6         1.62162103       -2.57407130       -1.58901579
  7         2.24883812       -2.96195164       -2.48748308
  6-Bq        0.13133192       0.84396077       8.35492885
  6-Bq        1.34227275       0.31078254       7.83036245
 16-Bq       -1.44551627       0.71816242       7.58926494
 16-Bq        1.45094339      -0.60426587       6.31858685
  6-Bq       -1.29213347      -0.85887299       6.79330318
  6-Bq       -0.14231871      -1.37993245       6.28925247
  6-Bq        0.39513105       1.53604892       9.51971520
  7-Bq        2.44442829       0.54629814       8.49942567
 16-Bq        2.09926816       1.48166095       9.83242147
  6-Bq       -2.53296427      -1.55031876       6.67784189
  7-Bq       -3.57142067      -2.06448111       6.58598107
  6-Bq       -0.13664331      -2.64115995       5.62350859
  7-Bq       -0.09046108      -3.65018442       5.04847560
  6-Bq       -0.51383765       2.22889315      10.35572430
  7-Bq       -1.24429002       2.81012537      11.04833123

@aug-cc-pVTZ.gbs/N

