%Chk=BLIND01110
%Mem=2GB
%NProcShared=16
#T M05/Gen test Massage Symmetry=None SCF=(tight,maxcyc=60)

M05 opt

0 1
  6         0.78226904        0.40720494       -0.51317463
  6         0.78782887       -1.01600151       -0.49646750
 16         0.13775549        1.43197274        0.76078373
 16         0.10887723       -1.99576681        0.81260582
  6        -1.19479716        0.41894422        1.34576128
  6        -1.20268382       -0.94015942        1.36623380
  6         1.42385346        0.86052912       -1.64815032
  7         1.36349845       -1.62849594       -1.50210916
 16         1.98725171       -0.50304214       -2.55814064
  6        -2.28922822        1.17484811        1.85754212
  7        -3.14599808        1.83362015        2.28551154
  6        -2.30987491       -1.66088308        1.90347420
  7        -3.17653005       -2.28818944        2.35770070
  6         1.65325193        2.19776410       -2.05354815
  7         1.85845917        3.28907045       -2.39711233
  6        -0.91673969        0.15923075        7.95687008
  6        -0.94228706        0.08302762        6.53582572
 16         0.21831057       -0.68969817        8.99585864
 16         0.20003369       -0.86624790        5.57220357
  6         1.65365619       -0.71119022        7.95497292
  6         1.64313728       -0.78260084        6.59761006
  6        -1.96291102        0.94398671        8.39844323
  7        -1.89533458        0.73354081        5.91422052
 16        -2.87954518        1.48163706        7.02893950
  6         2.87613190       -0.69182831        8.68727608
  7         3.84578177       -0.69874916        9.32830981
  6         2.85933246       -0.84201241        5.85512674
  7         3.82409118       -0.92176254        5.21184867
  6        -2.31414876        1.27267779        9.73027004
  7        -2.62244279        1.54502966       10.81741087

@aug-cc-pVTZ.gbs/N

