%Chk=BLIND00407
%Mem=2GB
%NProcShared=16
#T M05/Gen test Massage Symmetry=None SCF=(tight,maxcyc=80)

M05 opt

0 1
  6        -0.59932703        0.82451305       -0.04576309
  6        -1.14846505       -0.31852773       -0.69208488
 16         0.47292413        0.78287126        1.34601996
 16        -0.80993184       -1.98859324       -0.21160097
  6         1.35199890       -0.72433917        1.03032019
  6         0.84005657       -1.82214418        0.41356799
  6        -1.09333561        1.97183137       -0.63306148
  7        -1.98127188       -0.10925362       -1.68228545
 16        -2.19607495        1.52772096       -1.89463132
  6         2.68433150       -0.71138094        1.53609838
  7         3.75485495       -0.66213098        1.98637273
  6         1.62025680       -3.00484220        0.25091829
  7         2.20904099       -3.99874554        0.12279546
  6        -0.81981290        3.31973841       -0.29616328
  7        -0.61403178        4.43172835       -0.02740984
  6        -0.25606411        0.91265705        5.09516700
  6         0.56483652        0.98354586        6.25573738
 16        -0.21760846       -0.38031770        3.90552248
 16         1.74950949       -0.25117104        6.71028380
  6         0.19625630       -1.75872844        4.94129362
  6         0.97769771       -1.70451223        6.05217344
  6        -1.03591594        2.04825267        5.00823635
  7         0.45183099        2.04950351        7.00994163
 16        -0.66116122        3.09111858        6.34120904
  6        -0.34192723       -2.99228171        4.47247118
  7        -0.78201503       -3.97656938        4.03808248
  6         1.28899181       -2.88442418        6.79031009
  7         1.59216038       -3.82321902        7.40486619
  6        -1.98061240        2.39174787        4.01087580
  7        -2.75279617        2.69406971        3.19636389

@aug-cc-pVTZ.gbs/N

