%Chk=BLIND00963
%Mem=2GB
%NProcShared=16
#T M05/Gen test Massage Symmetry=None SCF=(tight,maxcyc=60)

M05 opt

0 1
  6        -0.35358437        0.92329313       -0.25222373
  6         0.30025488        0.24924436       -1.32179334
 16        -1.23561989        0.13902407        1.04987151
 16         0.35805895       -1.51155133       -1.49742246
  6        -0.30164696       -1.35917850        1.21481309
  6         0.32808610       -2.01204142        0.20246418
  6        -0.25065078        2.28801894       -0.43175460
  7         0.86285639        0.98872861       -2.24618644
 16         0.61184444        2.59813178       -1.90306646
  6        -0.29934276       -1.87355456        2.54391114
  7        -0.34616220       -2.26610232        3.63702926
  6         1.01515450       -3.24002531        0.43470227
  7         1.56140642       -4.25672078        0.57205326
  6        -0.76550447        3.32353959        0.38543028
  7        -1.18883523        4.18620117        1.03941955
  6        -0.17254181       -0.20351847        8.57233939
  6         1.18433971        0.11424138        8.28298169
 16        -1.56634357        0.42524310        7.70602987
 16         1.69439849        1.18270632        6.96661888
  6        -0.88711243        0.58510051        6.07593393
  6         0.40613912        0.88689037        5.78599024
  6        -0.23087331       -1.02360437        9.68110436
  7         2.10315363       -0.39505043        9.06673093
 16         1.37856307       -1.29533127       10.26480430
  6        -1.85637908        0.40845433        5.04617282
  7        -2.68680026        0.28003674        4.24299002
  6         0.84066260        1.03917057        4.43619691
  7         1.23187128        1.20134802        3.35380125
  6        -1.37559915       -1.56474917       10.31508661
  7        -2.30455823       -2.00988147       10.85359210

@aug-cc-pVTZ.gbs/N

