%Chk=BLIND02344
%Mem=2GB
%NProcShared=16
#T M05/Gen test Massage Symmetry=None SCF=(tight,maxcyc=60)

M05 opt

0 1
  6         0.65255880        0.55435795        0.55494431
  6         0.24549679        1.18898394       -0.65227440
 16         0.79428473       -1.18177152        0.78793541
 16        -0.22023028        0.31934285       -2.12244821
  6        -0.50624457       -1.75613716       -0.27171063
  6        -0.90532763       -1.15933857       -1.42592387
  6         0.98762723        1.51090029        1.49199239
  7         0.25129723        2.49942516       -0.67615272
 16         0.79355429        3.08204988        0.78583997
  6        -1.09818036       -2.97215523        0.17773540
  7        -1.53291452       -3.97576601        0.57139087
  6        -1.93355829       -1.73127503       -2.23188437
  7        -2.74583958       -2.17656479       -2.93391162
  6         1.45234293        1.31982764        2.81588778
  7         1.84355623        1.18160902        3.90167951
  6        -0.65255877       -0.55435797        6.11587568
  6        -0.24549675       -1.18898395        7.32309439
 16        -0.79428477        1.18177149        5.88288458
 16         0.22023026       -0.31934286        8.79326821
  6         0.50624449        1.75613718        6.94253065
  6         0.90532755        1.15933860        8.09674389
  6        -0.98762714       -1.51090033        5.17882758
  7        -0.25129713       -2.49942518        7.34697270
 16        -0.79355415       -3.08204991        5.88498000
  6         1.09818023        2.97215527        6.49308464
  7         1.53291435        3.97576608        6.09942917
  6         1.93355818        1.73127510        8.90270441
  7         2.74583944        2.17656490        9.60473168
  6        -1.45234283       -1.31982769        3.85493219
  7        -1.84355611       -1.18160908        2.76914045

@aug-cc-pVTZ.gbs/N

