%Chk=BLIND00724
%Mem=2GB
%NProcShared=16
#T M05/Gen test Massage Symmetry=None SCF=(tight,maxcyc=60)

M05 opt

0 1
  6         0.04166970        0.65725480        0.77935144
  6        -0.77964349        1.09706513       -0.29667745
 16         0.30731163       -1.02056487        1.22976473
 16        -1.65156964        0.00959019       -1.38834196
  6         0.21554073       -1.79934764       -0.36058039
  6        -0.56327992       -1.38918228       -1.39636358
  6         0.54042502        1.75009558        1.45923775
  7        -0.91832950        2.39013356       -0.45977323
 16        -0.07071475        3.19630627        0.72452053
  6         1.02499577       -2.96821435       -0.45867626
  7         1.68156985       -3.92713456       -0.48266631
  6        -0.59923454       -2.11701609       -2.62229472
  7        -0.68198957       -2.69463145       -3.62750028
  6         1.38623676        1.76803553        2.59477687
  7         2.07264143        1.80152543        3.53223245
  6        -0.10097474       -0.73675404        7.31314368
  6         0.84329949        0.26608408        7.67159665
 16        -1.52897360       -0.47484591        6.32282049
 16         0.74724125        1.95349889        7.14434677
  6        -0.93956975        0.79793838        5.23804155
  6        -0.03784457        1.76031902        5.56722120
  6         0.23614493       -1.92980343        7.92000997
  7         1.82245090       -0.08520299        8.46891711
 16         1.65642278       -1.68862859        8.88410129
  6        -1.54552894        0.75906556        3.94870373
  7        -2.08411941        0.70128705        2.92022185
  6         0.33464127        2.76980356        4.63119919
  7         0.64508098        3.62784900        3.91126076
  6        -0.43405732       -3.17489268        7.84418025
  7        -0.97638364       -4.20207083        7.80078507

@aug-cc-pVTZ.gbs/N

