%Chk=BLIND00706
%Mem=2GB
%NProcShared=16
#T M05/Gen test Massage Symmetry=None SCF=(tight,maxcyc=60)

M05 opt

0 1
  6        -0.90084307       -0.04249815        0.47726782
  6        -0.56349998        1.25771099        0.00664858
 16        -0.40647537       -1.55145182       -0.27584309
 16         0.44791977        1.56780351       -1.41302076
  6         1.17803783       -1.08540253       -0.92100822
  6         1.51335569        0.15210513       -1.37242906
  6        -1.73394025        0.06215619        1.57284976
  7        -1.06549619        2.28173268        0.65258931
 16        -2.03522944        1.73911874        1.89198611
  6         2.10162212       -2.16952915       -0.97345999
  7         2.81109193       -3.08920611       -1.01862532
  6         2.80559993        0.41055979       -1.91763354
  7         3.83534494        0.65902799       -2.39597955
  6        -2.31349069       -0.97807533        2.33914482
  7        -2.80502040       -1.81906810        2.97335741
  6         0.87555981        0.06090767        6.57749779
  6         0.81732850        0.93012988        5.45193636
 16        -0.50623947       -0.44497760        7.53834506
 16        -0.67967508        1.62503375        4.81109534
  6        -1.76855910       -0.48001403        6.29357854
  6        -1.83527620        0.34311408        5.21392443
  6         2.18978621       -0.26705773        6.84311194
  7         1.95197615        1.25601040        4.88251857
 16         3.21321405        0.54451399        5.70347455
  6        -2.77831890       -1.45301786        6.54801587
  7        -3.58922679       -2.24343946        6.81041843
  6        -2.92252807        0.26297355        4.29446654
  7        -3.80362867        0.25277268        3.53651945
  6         2.69854933       -1.09286703        7.87479383
  7         3.13433720       -1.76014450        8.72091772

@aug-cc-pVTZ.gbs/N

