%Chk=BLIND02182
%Mem=2GB
%NProcShared=16
#T M05/Gen test Massage Symmetry=None SCF=(tight,maxcyc=60)

M05 opt

0 1
  6         0.45016877        0.91395358       -0.05608781
  6        -0.09248951        0.46658138       -1.29350720
 16         1.08199600       -0.13002878        1.20859073
 16        -0.24964489       -1.23672599       -1.75027252
  6         0.03025493       -1.54428940        1.01409212
  6        -0.49516358       -1.98138279       -0.16086695
  6         0.47058723        2.29388526       -0.03010984
  7        -0.46530434        1.38187101       -2.15438700
 16        -0.15170595        2.89383089       -1.53265534
  6        -0.19585081       -2.24536488        2.23411631
  7        -0.33154505       -2.79638570        3.24858964
  6        -1.29342260       -3.16196476       -0.21518732
  7        -1.92427347       -4.13344081       -0.31103921
  6         0.93720687        3.14699051        0.99928125
  7         1.32420080        3.86212071        1.82989573
  6         0.09284221       -0.78755316        8.20752360
  6        -0.09199136        0.46382619        7.55505679
 16         0.89538232       -1.01373235        9.75454945
 16         0.43529529        2.01743891        8.22052252
  6         0.45878639        0.50003229       10.56819719
  6         0.27834640        1.70077542        9.95721322
  6        -0.39002132       -1.80371926        7.40780336
  7        -0.65928652        0.44975315        6.37360084
 16        -0.99355742       -1.12042474        5.93346305
  6         0.35029872        0.36378929       11.98267870
  7         0.29689477        0.20858542       13.13344053
  6        -0.02599597        2.87158777       10.71253836
  7        -0.24598303        3.85591481       11.29014733
  6        -0.39595734       -3.19644135        7.66365177
  7        -0.40073098       -4.34328226        7.85293741

@aug-cc-pVTZ.gbs/N

