%Chk=BLIND01648
%Mem=2GB
%NProcShared=16
#T M05/Gen test Massage Symmetry=None SCF=(tight,maxcyc=60)

M05 opt

0 1
  6        -0.33711211        0.28628586       -0.91951332
  6        -0.37274156       -1.12103737       -0.70975511
 16        -0.52953483        1.50189447        0.33499290
 16        -0.58749247       -1.88326468        0.87374731
  6         0.20661487        0.66242831        1.71249145
  6         0.18076647       -0.68004588        1.92400728
  6        -0.20013465        0.55132626       -2.26721283
  7        -0.27254095       -1.89072952       -1.76587720
 16        -0.15637339       -0.94932621       -3.13378867
  6         0.81709157        1.54888596        2.64662243
  7         1.28025841        2.31255654        3.39058261
  6         0.76472945       -1.25146472        3.09294256
  7         1.20144689       -1.75712277        4.04400194
  6        -0.13368006        1.80955983       -2.91343300
  7        -0.08681578        2.83359262       -3.46138965
  6        -0.33132288        0.28470669        9.46490580
  6        -0.36219830       -1.12275164        9.67451121
 16        -0.53888308        1.49950229       10.71778531
 16        -0.58566955       -1.88585439       11.25638451
  6         0.19044190        0.66345163       12.10097959
  6         0.16904031       -0.67911397       12.31241191
  6        -0.18518636        0.55028893        8.11827541
  7        -0.25039901       -1.89204147        8.61926048
 16        -0.12797545       -0.95019850        7.25219750
  6         0.78970156        1.55271389       13.03969688
  7         1.24367495        2.31851336       13.78712738
  6         0.74657598       -1.24782013       13.48585462
  7         1.17824992       -1.75144442       14.44028970
  6        -0.11945644        1.80877424        7.47247147
  7        -0.07301232        2.83297803        6.92479869

@aug-cc-pVTZ.gbs/N

