%Chk=BLIND00106
%Mem=2GB
%NProcShared=16
#T M05/Gen test Massage Symmetry=None SCF=(tight,maxcyc=60)

M05 opt

0 1
  6        -0.40379092       -0.92103574       -0.17249629
  6        -0.73497240       -0.38071716        1.10194528
 16        -0.10070727        0.02210736       -1.62409473
 16        -0.86522879        1.35193710        1.44184356
  6         0.62925508        1.47532245       -0.91738195
  6         0.32297423        2.00093075        0.29817224
  6        -0.42700844       -2.29985339       -0.11227963
  7        -0.98973564       -1.22850421        2.06849214
 16        -0.87718231       -2.78521271        1.48978041
  6         1.57307789        2.10372841       -1.78074405
  7         2.31623851        2.59290630       -2.52881511
  6         0.93650120        3.20489753        0.75423210
  7         1.38928625        4.19811963        1.15350854
  6        -0.17153753       -3.22954710       -1.14937783
  7         0.02591707       -4.00671086       -1.99087892
  6         0.46068001       -0.49474559        4.42985339
  6        -0.66620987       -1.18360605        4.96034100
 16         0.64879721        1.25191006        4.38166003
 16        -2.06345030       -0.38234028        5.69537889
  6        -0.21685697        1.70995583        5.85982071
  6        -1.29294932        1.06058839        6.37749940
  6         1.35068954       -1.40396423        3.89458923
  7        -0.67430908       -2.49066577        4.86344258
 16         0.70008792       -3.00054547        4.07479028
  6         0.29891773        2.89176526        6.46677424
  7         0.73922100        3.87140836        6.91132508
  6        -1.94734979        1.54097016        7.55007576
  7        -2.52886191        1.91245749        8.48536553
  6         2.59012708       -1.15078289        3.25830137
  7         3.60541149       -0.96087454        2.72517072

@aug-cc-pVTZ.gbs/N

