%Chk=BLIND02018
%Mem=2GB
%NProcShared=16
#T M05/Gen test Massage Symmetry=None SCF=(tight,maxcyc=60)

M05 opt

0 1
  6         0.46524048        0.64564764       -0.63859168
  6         0.49933835       -0.71015755       -1.07039752
 16         0.44057740        1.17391291        1.03736899
 16         0.49003105       -2.10107429        0.02498019
  6        -0.47596379       -0.15047961        1.77902847
  6        -0.45319918       -1.44845480        1.37605673
  6         0.52671673        1.48327879       -1.73399021
  7         0.57569509       -0.93037104       -2.36017877
 16         0.64616139        0.52157116       -3.17123687
  6        -1.23893942        0.26181384        2.90994489
  7        -1.82507300        0.64079315        3.83946903
  6        -1.19375947       -2.44788853        2.07365591
  7        -1.75745122       -3.29938889        2.62874588
  6         0.53098430        2.89909266       -1.75891625
  7         0.54490478        4.06073017       -1.79765172
  6        -0.45070375        0.58480421        9.93734218
  6        -0.24649866       -0.76014713        9.51873397
 16        -0.73172654        1.09754394       11.59464143
 16        -0.21048758       -2.14719055       10.61846216
  6         0.23583757       -0.10215683       12.47137391
  6         0.43955861       -1.38854026       12.08232450
  6        -0.46577084        1.41650568        8.83582102
  7        -0.11083217       -0.97750007        8.23334985
 16        -0.25491611        0.45965345        7.40585576
  6         0.77136707        0.39657491       13.69430664
  7         1.16609143        0.84090852       14.69328279
  6         1.19826264       -2.28866427       12.88736295
  7         1.78420012       -3.06399799       13.52490590
  6        -0.65104120        2.81981563        8.79626692
  7        -0.81069714        3.96998934        8.74424468

@aug-cc-pVTZ.gbs/N

