%Chk=BLIND01473
%Mem=2GB
%NProcShared=16
#T M05/Gen test Massage Symmetry=None SCF=(tight,maxcyc=60)

M05 opt

0 1
  6        -0.75923193        0.43939713       -0.52115827
  6        -0.79100481       -0.98318111       -0.55414770
 16        -0.13433634        1.40744507        0.80583280
 16        -0.16895992       -2.01998487        0.73917610
  6         1.16177105        0.34972874        1.39359455
  6         1.14448351       -1.00918156        1.36698683
  6        -1.35860526        0.94348880       -1.65779649
  7        -1.34759776       -1.54977604       -1.59675717
 16        -1.91934268       -0.37711559       -2.63062955
  6         2.25403885        1.06663617        1.96287870
  7         3.10951672        1.69389269        2.43816799
  6         2.22206244       -1.76888177        1.91069739
  7         3.06339854       -2.42780273        2.36775632
  6        -1.55168514        2.29795798       -2.02290170
  7        -1.72686526        3.40410823       -2.33409211
  6        -0.05123847       -0.37162301        9.00506349
  6         0.14193271        1.03753059        8.95217037
 16        -0.91805811       -1.32022289        7.80618960
 16        -0.43985624        2.07029891        7.63706598
  6        -0.54299583       -0.40199815        6.33638904
  6        -0.35523067        0.94272800        6.27235882
  6         0.48334756       -0.86971894       10.17614053
  7         0.76143079        1.59943678        9.96130049
 16         1.14065884        0.44335571       11.09733725
  6        -0.49538558       -1.21413923        5.16623957
  7        -0.49074257       -1.91328059        4.23759925
  6        -0.10405510        1.59147752        5.02737816
  7         0.07383038        2.16527258        4.03236956
  6         0.50070933       -2.20936077       10.63464546
  7         0.51584434       -3.30201747       11.03083758

@aug-cc-pVTZ.gbs/N

