%Chk=BLIND01315
%Mem=2GB
%NProcShared=16
#T M05/Gen test Massage Symmetry=None SCF=(tight,maxcyc=60)

M05 opt

0 1
  6        -0.55287907        0.52928726        0.67475080
  6         0.62156614        1.20624907        0.24089850
 16        -0.72718454       -1.21480333        0.80235273
 16         2.10413018        0.38875700       -0.27707728
  6         0.31177735       -1.74096825       -0.53474516
  6         1.43468120       -1.10357794       -0.95955640
  6        -1.50931222        1.45194365        1.04790496
  7         0.60455618        2.51664588        0.26165687
 16        -0.85862795        3.04669749        0.85246512
  6        -0.11634244       -2.96399631       -1.12804563
  7        -0.49081622       -3.97470499       -1.56328163
  6         2.22800693       -1.63834653       -2.01719471
  7         2.91978903       -2.05221060       -2.85450002
  6        -2.81254561        1.21395786        1.54801889
  7        -3.88167824        1.03714193        1.96847989
  6         0.61398983       -0.28548921        5.51120196
  6         0.58617684        1.12101116        5.72755767
 16         0.38708541       -1.50572243        6.75541332
 16         0.28290438        1.87751117        7.29928344
  6        -0.74979052       -0.66619326        7.82631294
  6        -0.78770553        0.67550778        8.04089355
  6         0.91708978       -0.54591297        4.18998543
  7         0.83462152        1.89426342        4.69886130
 16         1.16105197        0.95743374        3.36218251
  6        -1.63228382       -1.55197179        8.51019277
  7        -2.31356193       -2.31522638        9.06200396
  6        -1.71449084        1.24675999        8.96213284
  7        -2.43200429        1.75207164        9.72420942
  6         1.05687876       -1.80190708        3.55115346
  7         1.18457419       -2.82409363        3.01270713

@aug-cc-pVTZ.gbs/N

