%Chk=BLIND01605
%Mem=2GB
%NProcShared=16
#T M05/Gen test Massage Symmetry=None SCF=(tight,maxcyc=60)

M05 opt

0 1
  6        -0.48163697        0.80951080       -0.39220787
  6        -0.58707806       -0.36237404       -1.19307912
 16        -0.33716568        0.82905888        1.35915234
 16        -0.55715949       -2.01101095       -0.54833921
  6         0.57841115       -0.66625890        1.62347392
  6         0.48795831       -1.79131672        0.86603927
  6        -0.58199049        1.92940298       -1.19287876
  7        -0.74930429       -0.19829197       -2.48328056
 16        -0.82084926        1.42722336       -2.83470356
  6         1.42228239       -0.61020657        2.77056987
  7         2.07633799       -0.52517436        3.72773956
  6         1.23609166       -2.96039345        1.19390819
  7         1.80400201       -3.94410046        1.44033158
  6        -0.54070848        3.29160711       -0.80834768
  7        -0.51834771        4.41470503       -0.50960537
  6        -0.48112860        0.80988450        7.60793970
  6        -0.58824606       -0.36207953        6.80740687
 16        -0.33543451        0.82968975        9.35919571
 16        -0.55946806       -2.01059861        7.45249991
  6         0.57888687       -0.66644726        9.62322703
  6         0.48683250       -1.79158888        8.86610988
  6        -0.58095667        1.92969152        6.80708403
  7        -0.75120160       -0.19813340        5.51728007
 16        -0.82142652        1.42737042        5.16553771
  6         1.42360003       -0.61094642       10.76972996
  7         2.07839495       -0.52632628       11.72643058
  6         1.23406762       -2.96130975        9.19372962
  7         1.80120197       -3.94550623        9.43998567
  6        -0.53810165        3.29194227        7.19127774
  7        -0.51445656        4.41508570        7.48974992

@aug-cc-pVTZ.gbs/N

