%Chk=BLIND01538
%Mem=2GB
%NProcShared=16
#T M05/Gen test Massage Symmetry=None SCF=(tight,maxcyc=60)

M05 opt

0 1
  6        -0.41454346       -0.35408014       -0.86249051
  6        -0.45136508       -1.28447956        0.21399810
 16        -0.47546590        1.39399761       -0.69211070
 16        -0.53332108       -0.82377541        1.92151772
  6         0.36980198        1.59658486        0.85339979
  6         0.34381298        0.71588226        1.88845126
  6        -0.39591999       -1.03432535       -2.06341634
  7        -0.45795790       -2.55919621       -0.09081992
 16        -0.45214060       -2.73750203       -1.74583958
  6         1.07477420        2.83156989        0.94782330
  7         1.61412608        3.86053465        0.98686323
  6         1.02257298        0.99765264        3.11067556
  7         1.53599224        1.19863911        4.13387213
  6        -0.36992955       -0.50166640       -3.37519658
  7        -0.35795425       -0.08189829       -4.45905415
  6        -0.41254293       -0.53346487        7.66013651
  6        -0.01790407        0.78364186        7.29228237
 16         0.36416025       -1.51567461        8.89322727
 16         1.31595120        1.66791570        8.04956583
  6         0.88059884       -0.25653044       10.02987551
  6         1.25871930        1.00464001        9.69206184
  6        -1.45192239       -0.94912517        6.85253508
  7        -0.66805734        1.35507967        6.30809764
 16        -1.81584833        0.30612797        5.71379717
  6         0.91268902       -0.70319681       11.38285335
  7         0.94563672       -1.12019667       12.46738946
  6         1.70369585        1.92894436       10.68281876
  7         2.10035393        2.70484808       11.45194938
  6        -2.13505401       -2.18939785        6.86747929
  7        -2.70041551       -3.20497478        6.85936863

@aug-cc-pVTZ.gbs/N

