%Chk=BLIND01891
%Mem=2GB
%NProcShared=16
#T M05/Gen test Massage Symmetry=None SCF=(tight,maxcyc=60)

M05 opt

0 1
  6        -0.23997919        0.92295561       -0.36286614
  6         0.89081038        0.33527754       -0.99672425
 16        -1.59631646        0.03412901        0.31452083
 16         1.13125878       -1.40933193       -1.17868771
  6        -0.77401765       -1.43658023        0.86675364
  6         0.30663255       -2.00726883        0.27164547
  6        -0.14383254        2.29854681       -0.42457426
  7         1.78747182        1.14628929       -1.50280548
 16         1.30607049        2.72331028       -1.27438821
  6        -1.38904212       -2.02594157        2.00933307
  7        -1.93912314       -2.48197939        2.92619370
  6         0.86498581       -3.22110111        0.77043876
  7         1.33434088       -4.22373994        1.12448303
  6        -1.05201857        3.26633522        0.06913839
  7        -1.79069169        4.07430781        0.45982783
  6         0.24040561        0.92292084        9.06267228
  6        -0.88984018        0.33532415        9.69757483
 16         1.59602256        0.03399371        8.38397656
 16        -1.13027706       -1.40926967        9.87970352
  6         0.77306893       -1.43662069        7.83246710
  6        -0.30707245       -2.00723114        8.42857309
  6         0.14444331        2.29851867        9.12451923
  7        -1.78595004        1.14640031       10.20452908
 16        -1.30461947        2.72338518        9.97571372
  6         1.38696262       -2.02599823        6.68928805
  7         1.93613775       -2.48205422        5.77189358
  6        -0.86600673       -3.22099468        7.93026347
  7        -1.33578711       -4.22357801        7.57662636
  6         1.05225255        3.26624118        8.62998513
  7         1.79063137        4.07415978        8.23862829

@aug-cc-pVTZ.gbs/N

