%Chk=BLIND02019
%Mem=2GB
%NProcShared=16
#T M05/Gen test Massage Symmetry=None SCF=(tight,maxcyc=80)

M05 opt

0 1
  6         0.43330875       -0.45411892       -0.80444294
  6         0.44662195       -1.24822037        0.37668038
 16         0.49043476        1.30191833       -0.84427294
 16         0.49121953       -0.58531689        2.01776489
  6        -0.38842023        1.68662941        0.64694582
  6        -0.38503295        0.93685243        1.78073021
  6         0.44096247       -1.27388421       -1.91495161
  7         0.45991806       -2.55031918        0.22761017
 16         0.49028411       -2.92635877       -1.39368223
  6        -1.09532869        2.92212658        0.57682576
  7        -1.63543899        3.94688020        0.48011016
  6        -1.09035593        1.36174049        2.94517495
  7        -1.62602458        1.68293855        3.92538770
  6         0.44363408       -0.90290028       -3.28152843
  7         0.45533918       -0.61654308       -4.40800900
  6         0.48546569       -0.49773467       13.35270790
  6         0.27128417       -1.28431856       12.18598655
 16         0.71825256        1.24410611       13.37052946
 16         0.17179883       -0.62201153       10.54707215
  6        -0.30091396        1.71926335       11.99952717
  6        -0.51456302        0.97756141       10.88065436
  6         0.55391343       -1.31901364       14.46001047
  7         0.17626861       -2.58209202       12.34288178
 16         0.37523099       -2.96616355       13.95030827
  6        -0.86926162        3.01768217       12.14845390
  7        -1.29015044        4.08993983       12.30436771
  6        -1.31705913        1.47434173        9.81147185
  7        -1.93883338        1.85055273        8.90439512
  6         0.76611517       -0.95586329       15.81214237
  7         0.94851757       -0.67679957       16.92567222

@aug-cc-pVTZ.gbs/N

