%Chk=BLIND01386
%Mem=2GB
%NProcShared=16
#T M05/Gen test Massage Symmetry=None SCF=(tight,maxcyc=60)

M05 opt

0 1
  6        -0.15115152        0.85462433        0.53654392
  6        -0.98223342        0.74683538       -0.61389559
 16         0.44893565       -0.49962940        1.48227583
 16        -1.52597198       -0.78985945       -1.30491349
  6         0.62720350       -1.72492424        0.21302597
  6        -0.15843049       -1.83820475       -0.89041900
  6         0.05304071        2.18595445        0.83848576
  7        -1.39157207        1.86159358       -1.16852705
 16        -0.81529657        3.16076418       -0.30193650
  6         1.67818774       -2.65154515        0.47359358
  7         2.52967997       -3.39624280        0.74113688
  6         0.04088347       -2.89274087       -1.82965776
  7         0.14822659       -3.75180906       -2.60516111
  6         0.80375973        2.74082029        1.90324550
  7         1.40786668        3.21347041        2.77660257
  6         0.15084025        0.85488287        5.26378045
  6         0.98141142        0.74732777        6.41461062
 16        -0.44784181       -0.49950596        4.31735173
 16         1.52584834       -0.78919578        7.10545949
  6        -0.62591723       -1.72529021        5.58615597
  6         0.15923366       -1.83835427        6.68996694
  6        -0.05410776        2.18616076        4.96212053
  7         1.38970712        1.86220430        6.96977272
 16         0.81298459        3.16123238        6.10326591
  6        -1.67613604       -2.65255284        5.32478630
  7        -2.52698360       -3.39775404        5.05659493
  6        -0.03983693       -2.89329852        7.62879891
  7        -0.14698706       -3.75266462        8.40399881
  6        -0.80466487        2.74082265        3.89714041
  7        -1.40865099        3.21331344        3.02361357

@aug-cc-pVTZ.gbs/N

