%Chk=BLIND01531
%Mem=2GB
%NProcShared=16
#T M05/Gen test Massage Symmetry=None SCF=(tight,maxcyc=60)

M05 opt

0 1
  6         0.01015022        0.06327631       -1.01833295
  6        -0.24039353       -1.24964566       -0.52915977
 16        -0.44680835        1.55159034       -0.20308646
 16        -1.03441077       -1.59892054        1.01425593
  6        -0.28820101        1.05259340        1.49101149
  6        -0.52323235       -0.19726977        1.97085146
  6         0.60214889       -0.01034160       -2.26309043
  7         0.11310357       -2.25497804       -1.29218443
 16         0.76381991       -1.67705220       -2.71115831
  6         0.07846148        2.12300037        2.35754319
  7         0.35494007        3.03202846        3.02718528
  6        -0.41198929       -0.48296866        3.36366984
  7        -0.36192051       -0.75392669        4.49282926
  6         1.00675857        1.05127277       -3.10833263
  7         1.33637364        1.91012850       -3.81883714
  6         0.00955275        0.06345388        9.18167232
  6        -0.24076616       -1.24954147        9.67076362
 16        -0.44685278        1.55164745        9.99744835
 16        -1.03389000       -1.59904781       11.21458622
  6        -0.28727062        1.05234660       11.69136520
  6        -0.52207956       -0.19758907       12.17112516
  6         0.60081368       -0.00997502        7.93655308
  7         0.11223215       -2.25475752        8.90735487
 16         0.76213960       -1.67661506        7.48809855
  6         0.07995474        2.12258429       12.55786764
  7         0.35687228        3.03148189       13.22750549
  6        -0.41002899       -0.48353689       13.56382773
  7        -0.35930747       -0.75469479       14.69291004
  6         1.00497632        1.05176756        7.09125804
  7         1.33421398        1.91073157        6.38070944

@aug-cc-pVTZ.gbs/N

