%Chk=BLIND02434
%Mem=2GB
%NProcShared=16
#T M05/Gen test Massage Symmetry=None SCF=(tight,maxcyc=60)

M05 opt

0 1
  6         0.38091099        0.72298419       -0.61099066
  6         0.34082584       -0.56824037       -1.20845108
 16         0.59086945        1.03820851        1.10512930
 16         0.46562123       -2.08480060       -0.30343200
  6        -0.23054002       -0.37380619        1.79478360
  6        -0.27728090       -1.61131294        1.23439411
  6         0.30167959        1.69089850       -1.59189203
  7         0.23814176       -0.62560796       -2.51383415
 16         0.21337760        0.91645705       -3.14020394
  6        -0.82756099       -0.11024717        3.06174542
  7        -1.27723520        0.14642036        4.10247012
  6        -0.92678352       -2.69434669        1.89706008
  7        -1.41888109       -3.61177410        2.41387054
  6         0.31814671        3.09878965       -1.44109485
  7         0.33948515        4.25626776       -1.33676365
  6         0.45624801       -0.64023254       10.25676019
  6         0.37186160       -1.13982297        8.92667937
 16         0.59048937        1.05659461       10.69410849
 16         0.35619011       -0.11709589        7.48155929
  6        -0.35025885        1.80109895        9.38841781
  6        -0.44009867        1.33395930        8.11509405
  6         0.48872072       -1.69437511       11.14728372
  7         0.33747808       -2.44093041        8.77241586
 16         0.43913652       -3.18230247       10.25934220
  6        -0.99886854        3.00701512        9.78359035
  7        -1.48865434        3.99697121       10.14592973
  6        -1.18838312        2.03692825        7.12522185
  7        -1.76191345        2.59151959        6.27998961
  6         0.58096079       -1.64959407       12.55960623
  7         0.66564361       -1.63187070       13.71874842

@aug-cc-pVTZ.gbs/N

