%Chk=BLIND02031
%Mem=2GB
%NProcShared=16
#T M05/Gen test Massage Symmetry=None SCF=(tight,maxcyc=60)

M05 opt

0 1
  6         0.26769636        0.15279923       -0.97267670
  6         0.35366997       -1.20742867       -0.56253617
 16         0.51151528        1.54309666        0.07429132
 16         0.69291495       -1.72417367        1.09652253
  6        -0.10940946        0.90448065        1.60750498
  6        -0.03475653       -0.39151212        2.01058528
  6         0.03459493        0.21388751       -2.33180700
  7         0.20346573       -2.12601275       -1.48530483
 16        -0.02775949       -1.39870188       -2.96465289
  6        -0.67920871        1.90925847        2.44227440
  7        -1.11153344        2.76688848        3.09707142
  6        -0.52469874       -0.79340506        3.28823180
  7        -0.88396125       -1.16007421        4.33102148
  6        -0.10727757        1.36179029       -3.14872795
  7        -0.21700431        2.29289432       -3.83582419
  6        -0.26090267        0.15668673       10.91346347
  6         0.97928751       -0.52366914       10.75575850
 16        -0.92031519        1.33343760        9.78698703
 16         2.05592761       -0.31505255        9.36582557
  6        -0.30243709        0.69262288        8.25345998
  6         0.87887168        0.04050620        8.08945548
  6        -0.83278003       -0.19444503       12.11968319
  7         1.35321420       -1.32714766       11.72139876
 16         0.22125577       -1.29824829       12.94154294
  6        -1.15869056        0.96578996        7.14743132
  7        -1.87729006        1.23296681        6.27368975
  6         1.30575199       -0.39425453        6.79999891
  7         1.70659284       -0.74003563        5.76525828
  6        -2.05460992        0.25450523       12.67712720
  7        -3.04995262        0.61922698       13.15395721

@aug-cc-pVTZ.gbs/N

