%Chk=BLIND01539
%Mem=2GB
%NProcShared=16
#T M05/Gen test Massage Symmetry=None SCF=(tight,maxcyc=60)

M05 opt

0 1
  6        -0.31990951        0.44209261       -0.86216062
  6        -0.32620319       -0.98033194       -0.91211521
 16        -0.57509895        1.40526829        0.58548837
 16        -0.56340577       -2.02189334        0.49978887
  6         0.14528368        0.34384183        1.80963902
  6         0.14711505       -1.01495612        1.77346107
  6        -0.15430584        0.95044843       -2.13473793
  7        -0.17939495       -1.54299938       -2.08672694
 16        -0.05078468       -0.36642359       -3.25721645
  6         0.70899692        1.05739581        2.90698024
  7         1.13350901        1.68193881        3.79068186
  6         0.71423912       -1.77790378        2.83658057
  7         1.13828873       -2.43945580        3.69300161
  6        -0.10209795        2.30628159       -2.53990358
  7        -0.06624760        3.41361091       -2.89151764
  6        -0.30739565        0.25670779        6.68076427
  6        -0.02395641        1.37408219        7.51560755
 16         0.48353069       -1.30936876        6.78253059
 16         1.16365494        1.35598651        8.82855850
  6         0.79778505       -1.39879950        8.52533534
  6         1.06850743       -0.34010811        9.33374488
  6        -1.24632060        0.61162369        5.73326341
  7        -0.66397259        2.49043377        7.26661267
 16        -1.66073978        2.28078528        5.95001875
  6         0.78810161       -2.73239228        9.02785520
  7         0.79341526       -3.83824933        9.38596825
  6         1.35462990       -0.52671115       10.71839472
  7         1.62176364       -0.63431525       11.84444403
  6        -1.80140408       -0.18645721        4.70364326
  7        -2.26057578       -0.82417996        3.84715802

@aug-cc-pVTZ.gbs/N

