%Chk=BLIND01115
%Mem=2GB
%NProcShared=16
#T M05/Gen test Massage Symmetry=None SCF=(tight,maxcyc=60)

M05 opt

0 1
  6         0.49548660        0.89177042        0.01863992
  6         1.05656012       -0.05573336       -0.88316923
 16        -0.34173169        0.49518589        1.51205978
 16         0.97234776       -1.80991523       -0.65879765
  6        -1.09559743       -1.04462146        1.05950941
  6        -0.57131649       -1.95724409        0.19933880
  6         0.77105823        2.17078280       -0.42123602
  7         1.70209213        0.41135201       -1.92383233
 16         1.70905479        2.07525249       -1.87583665
  6        -2.32918503       -1.28266464        1.73232941
  7        -3.31775342       -1.44276254        2.32249398
  6        -1.23873668       -3.19047186       -0.06074097
  7        -1.73259370       -4.21956394       -0.27983198
  6         0.41217945        3.40280265        0.17751397
  7         0.13423936        4.42318358        0.65987066
  6         0.86666550        0.27906779        6.27611787
  6         0.87161081        0.49394740        7.68311075
 16        -0.01631288       -0.99622885        5.44999179
 16        -0.04811969       -0.48174599        8.83927101
  6        -1.43551113       -1.13971791        6.50327680
  6        -1.44461299       -0.93634017        7.84722572
  6         1.71675409        1.17939007        5.66614049
  7         1.63385063        1.45569037        8.14343774
 16         2.44972591        2.17345311        6.88245358
  6        -2.61030283       -1.54686490        5.80672426
  7        -3.53545098       -1.90296519        5.19969336
  6        -2.63403270       -1.12482609        8.61122556
  7        -3.57151443       -1.29466958        9.27696373
  6         2.01834626        1.30924013        4.28869737
  7         2.28460897        1.42404432        3.16307750

@aug-cc-pVTZ.gbs/N

