%Chk=BLIND01090
%Mem=2GB
%NProcShared=16
#T M05/Gen test Massage Symmetry=None SCF=(tight,maxcyc=60)

M05 opt

0 1
  6         0.37588367       -0.22328739        0.92193444
  6         0.40858756        1.16543227        0.61174930
 16         0.50755820       -1.52575002       -0.25057123
 16         0.55700348        1.81245901       -1.02956646
  6        -0.28460430       -0.77994078       -1.65070310
  6        -0.26204043        0.54404338       -1.95762472
  6         0.29704205       -0.39159537        2.28969160
  7         0.35832873        2.00841357        1.61410483
 16         0.29812606        1.16671289        3.04896806
  6        -0.93949630       -1.72540136       -2.49231488
  7        -1.43831792       -2.53609250       -3.15951043
  6        -0.89420834        1.03603157       -3.13756255
  7        -1.37000029        1.47667004       -4.10212768
  6         0.25338287       -1.60059206        3.02561914
  7         0.22603111       -2.58305476        3.64619535
  6        -0.27316551        0.35873605        9.86165566
  6         0.98518679       -0.30637577        9.86321039
 16        -1.62057898       -0.02182272       10.92380846
 16         1.41216599       -1.61967599       10.97114524
  6        -0.74804464       -0.53887315       12.37827220
  6         0.45388666       -1.17351273       12.39369307
  6        -0.29961073        1.29951277        8.85193143
  7         1.86297370        0.06207246        8.96232413
 16         1.20782229        1.24986839        7.99752656
  6        -1.45769056       -0.26488782       13.58343789
  7        -2.08448950       -0.04247367       14.53677312
  6         1.04942848       -1.59035909       13.62068573
  7         1.55745160       -1.97341125       14.59336743
  6        -1.35489655        2.17181091        8.49049506
  7        -2.21366535        2.88842389        8.17414415

@aug-cc-pVTZ.gbs/N

