%Chk=BLIND00609
%Mem=2GB
%NProcShared=16
#T M05/Gen test Massage Symmetry=None SCF=(tight,maxcyc=60)

M05 opt

0 1
  6        -0.74442560       -0.65754598       -0.23360805
  6        -1.18713914        0.69016640       -0.11740690
 16         0.85601699       -1.15527820       -0.76215588
 16        -0.17363224        2.10074618       -0.46041824
  6         1.83385600        0.18317174       -0.13246969
  6         1.42310229        1.47359715       -0.01530451
  6        -1.78469799       -1.51497820        0.06294980
  7        -2.43435596        0.88686225        0.23419083
 16        -3.19826622       -0.57962585        0.42594760
  6         3.15936158       -0.20784737        0.21570940
  7         4.23609553       -0.56937057        0.46297037
  6         2.30731964        2.48618609        0.46089423
  7         3.00154005        3.34812228        0.81592968
  6        -1.78494852       -2.93101448        0.05984877
  7        -1.80584015       -4.09317563        0.05345181
  6         0.15492529        0.99625251        5.70056733
  6         0.35179860        0.59224235        7.05106478
 16         0.43879554       -0.01329682        4.29033881
 16         0.89068685       -1.02326625        7.53513063
  6         0.01687199       -1.60643415        4.94456817
  6         0.19854471       -2.00437685        6.23153386
  6        -0.22394403        2.32305084        5.66358858
  7         0.15052393        1.49013184        7.98441519
 16        -0.27252461        2.93929015        7.28306862
  6        -0.51053187       -2.49317980        3.96140137
  7        -0.91317279       -3.18691502        3.12009004
  6        -0.13226409       -3.32851740        6.64524786
  7        -0.35999512       -4.40508037        7.01951633
  6        -0.50892119        3.12473235        4.53165959
  7        -0.73735985        3.79989795        3.61347491

@aug-cc-pVTZ.gbs/N

