%Chk=BLIND02511
%Mem=2GB
%NProcShared=16
#T M05/Gen test Massage Symmetry=None SCF=(tight,maxcyc=60)

M05 opt

0 1
  6         0.20920518       -0.26682711        0.96236448
  6         0.28008796        1.13546434        0.72916722
 16         0.56173816       -1.51013261       -0.22861351
 16         0.70933302        1.86223783       -0.82715451
  6         0.02146491       -0.69937135       -1.71013067
  6         0.08254815        0.63807138       -1.94499194
  6        -0.10871198       -0.50189486        2.28485269
  7         0.04319619        1.92838938        1.74553930
 16        -0.26038591        1.01751814        3.10534384
  6        -0.46286886       -1.60467721       -2.69852925
  7        -0.82608634       -2.38339920       -3.48138182
  6        -0.33630919        1.18506962       -3.19370863
  7        -0.63882697        1.67075817       -4.20539819
  6        -0.26789919       -1.74547903        2.94312792
  7        -0.39325449       -2.75712284        3.50166061
  6         0.44200961       -0.10376684       10.70854706
  6        -0.90341829        0.35615698       10.77273831
 16         1.09247904       -1.15974626        9.46343115
 16        -2.14607031       -0.04077025        9.57571990
  6         0.12919273       -0.64292493        8.06733041
  6        -1.15533518       -0.20092631        8.11496762
  6         1.13969945        0.34708749       11.81093650
  7        -1.24067308        1.09139607       11.80402038
 16         0.06728735        1.26242977       12.81935474
  6         0.82277069       -0.77493521        6.82934310
  7         1.42028240       -0.92273397        5.84327602
  6        -1.85782094        0.14673174        6.92350232
  7        -2.47765334        0.41281174        5.97696370
  6         2.49505649        0.11483265       12.14892084
  7         3.60278978       -0.07322305       12.44667568

@aug-cc-pVTZ.gbs/N

