%Chk=BLIND02278
%Mem=2GB
%NProcShared=16
#T M05/Gen test Massage Symmetry=None SCF=(tight,maxcyc=60)

M05 opt

0 1
  6         0.41117613        0.90053959       -0.24712657
  6         0.31584822       -0.00448922       -1.34150405
 16         0.63500400        0.43700555        1.43321682
 16         0.37618224       -1.76657397       -1.18024191
  6        -0.24562519       -1.10173921        1.46286257
  6        -0.34529864       -1.97406277        0.42519168
  6         0.37294037        2.19896313       -0.71396440
  7         0.21034126        0.51036595       -2.54219238
 16         0.25113541        2.17150856       -2.44290522
  6        -0.83040751       -1.38732982        2.73075740
  7        -1.26835245       -1.58726907        3.78878460
  6        -1.04015773       -3.21117707        0.56893099
  7        -1.57074520       -4.24215898        0.64942543
  6         0.44948620        3.40259378        0.02804803
  7         0.52020335        4.40031012        0.62021111
  6        -0.41117683       -0.90053927        8.43672659
  6        -0.31584816        0.00448948        9.53110407
 16        -0.63500440       -0.43700505        6.75638320
 16        -0.37618080        1.76657428        9.36984191
  6         0.24562601        1.10173901        6.72673741
  6         0.34530019        1.97406249        7.76440829
  6        -0.37294209       -2.19896283        8.90356442
  7        -0.21034157       -0.51036577       10.73179239
 16        -0.25113704       -2.17150835       10.63250524
  6         0.83040851        1.38732915        5.45884256
  7         1.26835357        1.58726805        4.40081535
  6         1.04016025        3.21117624        7.62066896
  7         1.57074853        4.24215774        7.54017449
  6        -0.44948890       -3.40259343        8.16155200
  7        -0.52020685       -4.40030971        7.56938893

@aug-cc-pVTZ.gbs/N

