%Chk=BLIND00091
%Mem=2GB
%NProcShared=16
#T M05/Gen test Massage Symmetry=None SCF=(tight,maxcyc=60)

M05 opt

0 1
  6         0.17554976       -0.82454364        0.57482082
  6         0.92631163        0.31843481        0.96951504
 16        -1.41687939       -0.78277281       -0.16743335
 16         0.38358020        1.98854339        0.74419692
  6        -1.30077650        0.72446079       -1.09419605
  6        -0.58699963        1.82220688       -0.72933972
  6         0.85651891       -1.97191836        0.92853749
  7         2.07453381        0.10906561        1.56584582
 16         2.32857406       -1.52793104        1.72900952
  6        -2.08543573        0.71159350       -2.28383212
  7        -2.75873207        0.66241910       -3.23011270
  6        -0.59866731        3.00493213       -1.52618776
  7        -0.60221774        3.99885571       -2.12870701
  6         0.46791028       -3.31979350        0.73518708
  7         0.16061625       -4.43175858        0.59306052
  6        -0.24713692       -0.74244656        7.16403978
  6        -1.23385554       -0.50864343        8.16281360
 16         0.83516601        0.47559497        6.50562363
 16        -1.51165279        1.05995649        8.93541396
  6         1.05608363        1.51231862        7.92707414
  6         0.12300339        1.74309090        8.88819300
  6        -0.31763864       -2.05415536        6.74006720
  7        -2.00094717       -1.51646067        8.50005962
 16        -1.60056264       -2.85170889        7.59026772
  6         2.33047016        2.14933334        7.96230046
  7         3.37242809        2.66388741        7.93489982
  6         0.38642097        2.63492299        9.96948327
  7         0.54669854        3.37503010       10.85123080
  6         0.46759101       -2.70369469        5.75686758
  7         1.09632770       -3.25029494        4.94630341

@aug-cc-pVTZ.gbs/N

