%Chk=BLIND00472
%Mem=2GB
%NProcShared=16
#T M05/Gen test Massage Symmetry=None SCF=(tight,maxcyc=60)

M05 opt

0 1
  6        -0.68744568       -0.74535391       -0.11390738
  6         0.24417472       -0.98182220        0.93585109
 16        -1.23973590        0.83805549       -0.63955630
 16         1.03083218        0.29875439        1.87173675
  6         0.21707833        1.80329108       -0.33933200
  6         1.11486934        1.58768479        0.65822966
  6        -1.14518673       -1.95006992       -0.60831178
  7         0.50325994       -2.22955197        1.24229079
 16        -0.40621722       -3.24061424        0.28233179
  6         0.35682038        2.89989081       -1.23879342
  7         0.41488525        3.79354734       -1.97987339
  6         2.23215740        2.45481027        0.84181269
  7         3.13969951        3.15152791        1.04645377
  6        -2.08501040       -2.17554267       -1.64323300
  7        -2.86138435       -2.37911853       -2.48400424
  6        -0.88158927       -0.32018785        5.36569499
  6         0.22072179       -1.17424189        5.65087678
 16        -0.78051844        1.41834726        5.12948107
 16         1.89703014       -0.62021060        5.78364724
  6         0.82368031        1.54954871        4.38553577
  6         1.88386812        0.74039225        4.64804612
  6        -2.05102046       -1.05344831        5.37363343
  7        -0.03715885       -2.44232465        5.85902029
 16        -1.67798189       -2.70273863        5.75509143
  6         0.93366189        2.64680775        3.48275323
  7         0.98170315        3.56733333        2.77457407
  6         3.14898853        0.96192354        4.02809759
  7         4.20464043        1.12255577        3.56905241
  6        -3.37412015       -0.60066149        5.15101322
  7        -4.46741160       -0.24490638        4.97999266

@aug-cc-pVTZ.gbs/N

