%Chk=BLIND02383
%Mem=2GB
%NProcShared=16
#T M05/Gen test Massage Symmetry=None SCF=(tight,maxcyc=80)

M05 opt

0 1
  6         0.70184627        0.21586134       -0.70846637
  6         0.60912935       -1.17023137       -0.39866446
 16         0.37643215        1.52803367        0.41439874
 16         0.11380791       -1.80360033        1.17870321
  6        -0.89487290        0.79340019        1.40849088
  6        -0.99552354       -0.52799151        1.71087719
  6         1.15501094        0.37282410       -2.00280315
  7         0.94557292       -2.02148994       -1.33676072
 16         1.44353972       -1.19170209       -2.69116026
  6        -1.82030755        1.74543701        1.92645444
  7        -2.53500186        2.56135010        2.34441487
  6        -2.03383190       -1.01054762        2.56116966
  7        -2.84488142       -1.44345284        3.27230810
  6         1.40070330        1.57567747       -2.70845708
  7         1.61652327        2.55296602       -3.29957868
  6         0.40521128       -0.33401065       11.67559737
  6         1.35965518        0.22426456       12.57180733
 16        -1.07047857       -1.15983746       12.15399696
 16         1.19594635        0.20444248       14.33458776
  6        -1.46860640       -0.27424623       13.63768982
  6        -0.56748358        0.26444585       14.50107417
  6         0.84955795       -0.19150760       10.37653920
  7         2.43892998        0.75401005       12.04989195
 16         2.39866204        0.58617431       10.39425716
  6        -2.86964762       -0.20629172       13.88979166
  7        -4.01877050       -0.19783538       14.06482919
  6        -0.99324141        0.91828180       15.69487934
  7        -1.29318476        1.43356855       16.69259657
  6         0.21969412       -0.61372508        9.18064104
  7        -0.27847673       -0.96161171        8.18973408

@aug-cc-pVTZ.gbs/N

