%Chk=BLIND00950
%Mem=2GB
%NProcShared=16
#T M05/Gen test Massage Symmetry=None SCF=(tight,maxcyc=60)

M05 opt

0 1
  6        -0.32463389       -0.91885976       -0.30235491
  6        -1.01545423       -0.41371097        0.83493072
 16         0.37006771        0.06331544       -1.58346312
 16        -1.26140996        1.30873322        1.16246716
  6         0.84630578        1.50249308       -0.66363319
  6         0.19645858        1.99461473        0.42409791
  6        -0.34546781       -2.29889218       -0.28286972
  7        -1.52575407       -1.28775034        1.66770277
 16        -1.23049769       -2.82826894        1.11043890
  6         1.98983987        2.15899805       -1.20439253
  7         2.90994974        2.67206253       -1.69567216
  6         0.63661352        3.19034453        1.06475054
  7         0.94200612        4.17583454        1.59998034
  6         0.20990783       -3.19988314       -1.22358309
  7         0.65143049       -3.95381266       -1.99022768
  6         0.86823052        0.36870355        4.96583155
  6         0.35811518        1.13329754        6.05257210
 16         0.65943952       -1.36423984        4.76130736
 16        -0.60835865        0.45835003        7.37354239
  6        -0.93992255       -1.58466822        5.49450199
  6        -1.43928649       -0.86114217        6.53122266
  6         1.61199184        1.18208038        4.13484392
  7         0.65644110        2.40916521        6.08456239
 16         1.62834702        2.78795468        4.78732135
  6        -1.67774619       -2.65770247        4.91544808
  7        -2.23062811       -3.55634612        4.42764260
  6        -2.72350892       -1.15162918        7.07924819
  7        -3.75106979       -1.37172450        7.57583942
  6         2.30363688        0.83114954        2.95008946
  7         2.88464880        0.55909282        1.98080817

@aug-cc-pVTZ.gbs/N

