%Chk=BLIND01429
%Mem=2GB
%NProcShared=16
#T M05/Gen test Massage Symmetry=None SCF=(tight,maxcyc=60)

M05 opt

0 1
  6        -0.40986837        0.92366577       -0.14127413
  6        -0.00255456        0.28786695       -1.34779059
 16        -0.97363478        0.09218505        1.30071197
 16         0.03246010       -1.46668747       -1.58210045
  6        -0.01143477       -1.39456984        1.21209412
  6         0.38483925       -2.01104776        0.06729461
  6        -0.36288455        2.29402544       -0.30005102
  7         0.33386003        1.05976366       -2.35221118
 16         0.14906676        2.65559551       -1.91621917
  6         0.29040703       -1.94277730        2.49250412
  7         0.49085151       -2.36394574        3.55722576
  6         1.11849798       -3.23339827        0.10661429
  7         1.69171721       -4.24438300        0.09062294
  6        -0.69419545        3.29983781        0.64002505
  7        -0.97069495        4.13852712        1.39583203
  6         0.52779841        0.10540029        8.03544023
  6         1.25794123        0.47861616        9.19880949
 16        -0.72391227       -1.12684429        7.97790514
 16         0.99713814       -0.22504123       10.80237937
  6        -1.41847238       -0.95636767        9.60044822
  6        -0.73304271       -0.59986648       10.71881181
  6         1.00135242        0.80724145        6.94527107
  7         2.20226010        1.37620686        9.05579603
 16         2.30573948        1.82781473        7.45696545
  6        -2.80541820       -1.28009297        9.65214823
  7        -3.92934511       -1.57669088        9.64883047
  6        -1.37929887       -0.53785018       11.98863420
  7        -1.85765802       -0.50258011       13.04733844
  6         0.56965576        0.73566362        5.59854056
  7         0.23441566        0.68307407        4.48681023

@aug-cc-pVTZ.gbs/N

