%Chk=BLIND02463
%Mem=2GB
%NProcShared=16
#T M05/Gen test Massage Symmetry=None SCF=(tight,maxcyc=60)

M05 opt

0 1
  6         0.29443092       -0.91952108       -0.33000048
  6         1.10076042       -0.40469125        0.72385418
 16        -0.53764678        0.05201828       -1.53510404
 16         1.37282031        1.32067413        1.01313962
  6        -0.91901430        1.49514689       -0.57799345
  6        -0.15866772        1.99648707        0.43105321
  6         0.32326129       -2.29931730       -0.30481246
  7         1.70105223       -1.27159214        1.50230945
 16         1.35459929       -2.81665915        0.98883583
  6        -2.11670284        2.14399163       -0.99707855
  7        -3.08633076        2.65054109       -1.39004466
  6        -0.53296759        3.19455992        1.10815215
  7        -0.78364146        4.18223974        1.66723829
  6        -0.32563916       -3.20824349       -1.17541560
  7        -0.84335874       -3.96859813       -1.88599507
  6         0.34180036       -0.91998892        5.27637854
  6        -0.64417706       -0.38584116        4.39981631
 16         1.49142920        0.03019675        6.20590389
 16        -0.89536213        1.34516647        4.12575974
  6         0.52301965        1.47956612        6.53091688
  6        -0.42182041        1.99928431        5.70338180
  6         0.30514156       -2.29907738        5.23083325
  7        -1.38451169       -1.23829105        3.73416336
 16        -0.91349843       -2.79216426        4.10096226
  6         0.85851258        2.11181764        7.76330974
  7         1.18346751        2.60436170        8.76480746
  6        -1.11290901        3.20070218        6.03943772
  7        -1.67923065        4.19173132        6.25868001
  6         1.11615291       -3.22373712        5.93256924
  7         1.77879400       -3.99681164        6.49324605

@aug-cc-pVTZ.gbs/N

