%Chk=BLIND02381
%Mem=2GB
%NProcShared=16
#T M05/Gen test Massage Symmetry=None SCF=(tight,maxcyc=60)

M05 opt

0 1
  6        -0.08216154        0.79407254       -0.63545825
  6        -0.66146947       -0.40434660       -1.13946274
 16         1.29773352        0.87275654        0.44999792
 16        -0.09796356       -2.03036403       -0.72338972
  6         1.05158118       -0.60933803        1.39176583
  6         0.49901097       -1.75944577        0.92319097
  6        -0.72318264        1.88615690       -1.18477322
  7        -1.65183973       -0.28414561       -1.98950891
 16        -1.94725162        1.32841529       -2.27811946
  6         1.54095618       -0.51168693        2.72670629
  7         1.97595216       -0.39215849        3.79800666
  6         0.38979485       -2.91400447        1.75325602
  7         0.30731640       -3.88671859        2.38408933
  6        -0.46048754        3.26061170       -0.96790060
  7        -0.25271298        4.39315295       -0.80891644
  6         0.08216176       -0.79407276       10.31088794
  6         0.66146527        0.40434750       10.81489486
 16        -1.29773007       -0.87275950        9.22542787
 16         0.09795643        2.03036379       10.39882137
  6        -1.05157882        0.60933632        8.28366164
  6        -0.49901282        1.75944513        8.75223882
  6         0.72318408       -1.88615587       10.86020397
  7         1.65183346        0.28414843       11.66494372
 16         1.94724860       -1.32841193       11.95355400
  6        -1.54094985        0.51168489        6.94871975
  7        -1.97594254        0.39215608        5.87741809
  6        -0.38979729        2.91400467        7.92217486
  7        -0.30731952        3.88671943        7.29134243
  6         0.46049305       -3.26061119       10.64332969
  7         0.25272178       -4.39315286       10.48434418

@aug-cc-pVTZ.gbs/N

