%Chk=BLIND00637
%Mem=2GB
%NProcShared=16
#T M05/Gen test Massage Symmetry=None SCF=(tight,maxcyc=60)

M05 opt

0 1
  6        -0.04530405        0.01978076       -1.01914924
  6        -0.29201882       -1.26578999       -0.46034128
 16        -0.42922642        1.55040063       -0.24563580
 16        -1.00524618       -1.53290983        1.13795221
  6        -0.18579664        1.12060528        1.45734394
  6        -0.41640197       -0.10269059        2.00324910
  6         0.47518528       -0.11870916       -2.29006018
  7         0.00026842       -2.30962912       -1.19710995
 16         0.58149569       -1.80589560       -2.67337019
  6         0.24777477        2.21908690        2.25511810
  7         0.57745347        3.14986051        2.86844140
  6        -0.23313263       -0.33124069        3.39899949
  7        -0.12531606       -0.55500264        4.53444315
  6         0.85136619        0.89756582       -3.20156527
  7         1.15649489        1.71856187       -3.96573665
  6        -0.55111643        0.73715000        6.95470138
  6        -1.33856931       -0.26365389        6.31898432
 16         1.02384492        0.47179527        7.68791367
 16        -0.83763071       -1.95168140        6.13401945
  6         1.66113143       -0.80080950        6.63033857
  6         0.92048339       -1.76125852        6.01664304
  6        -1.24320574        1.93132197        6.97109977
  7        -2.52033431        0.09009476        5.87609225
 16        -2.79245031        1.69355870        6.23073738
  6         3.08014442       -0.76412452        6.50327169
  7         4.23996654       -0.70819261        6.44963124
  6         1.53916872       -2.77083813        5.22170946
  7         2.00281736       -3.62891259        4.58951937
  6        -0.83763189        3.17511531        7.51300053
  7        -0.52492318        4.20125975        7.96059047

@aug-cc-pVTZ.gbs/N

