%Chk=BLIND01528
%Mem=2GB
%NProcShared=16
#T M05/Gen test Massage Symmetry=None SCF=(tight,maxcyc=60)

M05 opt

0 1
  6        -0.47901940        0.84922803        0.30076747
  6        -0.29815750        0.76291155       -1.10836882
 16        -0.68535314       -0.52178581        1.38070454
 16        -0.21898089       -0.76032798       -2.00729080
  6         0.31538078       -1.73283870        0.55850956
  6         0.49726323       -1.82562327       -0.78534826
  6        -0.53933796        2.17489534        0.68059781
  7        -0.21969433        1.88796412       -1.77617140
 16        -0.39473737        3.17125587       -0.73049500
  6         0.90573703       -2.67175682        1.45349667
  7         1.34542112       -3.42711450        2.21985540
  6         1.28727088       -2.87019273       -1.34988745
  7         1.89778978       -3.72053276       -1.85497618
  6        -0.72114021        2.70999729        1.97897460
  7        -0.87880464        3.16653626        3.03623994
  6         0.48866214       -0.87809811        7.18433957
  6         0.10181151       -0.19009144        5.99993252
 16         0.90235528       -0.11176447        8.71080849
 16        -0.05781609        1.56918805        5.88142915
  6        -0.16728109        1.30160347        8.66190877
  6        -0.54513151        1.96681758        7.53835935
  6         0.55878351       -2.23333590        6.93191777
  7        -0.11516586       -0.91138366        4.92731032
 16         0.16957598       -2.51598822        5.26654942
  6        -0.58362671        1.73312459        9.95478754
  7        -0.87679483        2.06121849       11.03070569
  6        -1.37376786        3.12512122        7.61343542
  7        -2.02294249        4.08909557        7.62930629
  6         0.91425833       -3.27606335        7.82159498
  7         1.21250111       -4.14351598        8.53550891

@aug-cc-pVTZ.gbs/N

