%Chk=BLIND02444
%Mem=2GB
%NProcShared=16
#T M05/Gen test Massage Symmetry=None SCF=(tight,maxcyc=60)

M05 opt

0 1
  6         0.43529903       -0.89663898        0.21831673
  6         0.45698696        0.02829575        1.29991371
 16         0.47874387       -0.46411747       -1.48449105
 16         0.49953628        1.78704797        1.10099532
  6        -0.40025689        1.07541676       -1.44824071
  6        -0.38892706        1.96662913       -0.42195799
  6         0.44721323       -2.18629463        0.71020044
  7         0.48008970       -0.46446676        2.51420832
 16         0.51031649       -2.12720993        2.44148711
  6        -1.11684652        1.33897393       -2.65162202
  7        -1.66506067        1.52044317       -3.66044469
  6        -1.09532763        3.20217578       -0.51341641
  7        -1.63162272        4.23247798       -0.55573748
  6         0.44443852       -3.40334501       -0.01364286
  7         0.45180455       -4.41178210       -0.59165350
  6         0.49558911       -0.86187062        8.04007010
  6        -0.58852491       -0.57456059        8.91641273
 16         0.57299606       -0.40979038        6.34355949
 16        -2.03801721        0.32383012        8.44054032
  6        -0.32863593        1.11669450        6.37558687
  6        -1.36448073        1.40408771        7.20749717
  6         1.44453513       -1.61119674        8.70588915
  7        -0.51326127       -1.03722771       10.14039580
 16         0.89529710       -1.90518216       10.32352221
  6         0.10767000        2.04503027        5.38618327
  7         0.48241866        2.75869443        4.54866316
  6        -2.05489793        2.64884954        7.11898725
  7        -2.66427790        3.63700806        7.06308629
  6         2.66918435       -2.12048609        8.20987795
  7         3.67353254       -2.55404004        7.81692554

@aug-cc-pVTZ.gbs/N

