%Chk=BLIND00414
%Mem=2GB
%NProcShared=16
#T M05/Gen test Massage Symmetry=None SCF=(tight,maxcyc=60)

M05 opt

0 1
  6         0.05262013       -0.91362028       -0.45126270
  6        -1.27829273       -0.46959179       -0.21181268
 16         1.42720317        0.13385326       -0.77038224
 16        -1.76324735        1.23252042       -0.16468108
  6         0.98944958        1.54660302        0.20769342
  6        -0.27668014        1.98051113        0.44493447
  6         0.08599590       -2.29346840       -0.46569939
  7        -2.20013627       -1.38719913       -0.05037759
 16        -1.51875657       -2.89743348       -0.21109721
  6         2.12144469        2.25019898        0.71230164
  7         3.07499368        2.80336885        1.08100266
  6        -0.51845947        3.16015652        1.20908201
  7        -0.76109234        4.13077290        1.80065555
  6         1.19787275       -3.14377516       -0.67988791
  7         2.09755278       -3.85663655       -0.86291908
  6         0.78848434        0.56697435        5.11803266
  6        -0.15442801        0.28162601        4.09074532
 16         0.40586426        0.73497885        6.82504555
 16        -1.88147860        0.01502653        4.37501511
  6        -0.93452049       -0.41681058        6.96951662
  6        -1.84073522       -0.69914379        5.99652798
  6         2.03639189        0.76233464        4.56137809
  7         0.28869232        0.24934475        2.85767504
 16         1.91545747        0.60180221        2.83962585
  6        -1.01880404       -1.01829311        8.25878179
  7        -1.06092804       -1.46389589        9.33156172
  6        -2.91273390       -1.60976293        6.23218353
  7        -3.81787651       -2.32183700        6.38900671
  6         3.25159790        1.07773081        5.21633461
  7         4.25599562        1.34583289        5.73633693

@aug-cc-pVTZ.gbs/N

