%Chk=BLIND02219
%Mem=2GB
%NProcShared=16
#T M05/Gen test Massage Symmetry=None SCF=(tight,maxcyc=60)

M05 opt

0 1
  6         0.65047183        0.66186179       -0.42418661
  6         0.84437359       -0.68276624       -0.84869127
 16         0.04484612        1.14833769        1.15222557
 16         0.47176792       -2.10045140        0.14424485
  6        -1.05820762       -0.19516463        1.50207700
  6        -0.88543838       -1.48270990        1.10204952
  6         1.07741972        1.52649597       -1.41182341
  7         1.36250531       -0.87080756       -2.03782541
 16         1.69398629        0.60090172       -2.74146528
  6        -2.16802952        0.18800781        2.30989128
  7        -3.04214204        0.54308925        2.98888870
  6        -1.81126276       -2.50004686        1.47863506
  7        -2.52339411       -3.36574471        1.78581954
  6         1.07629175        2.94249649       -1.40134916
  7         1.09144585        4.10475357       -1.40632378
  6        -0.65047183       -0.66186179        8.95592660
  6        -0.84437381        0.68276629        9.38043102
 16        -0.04484580       -1.14833788        7.37951461
 16        -0.47176812        2.10045133        8.38749473
  6         1.05820786        0.19516450        7.02966315
  6         0.88543841        1.48270982        7.42969040
  6        -1.07741981       -1.52649586        9.94356346
  7        -1.36250576        0.87080774       10.56956504
 16        -1.69398670       -0.60090146       11.27320508
  6         2.16802994       -0.18800795        6.22184913
  7         3.04214262       -0.54308940        5.54285191
  6         1.81126275        2.50004682        7.05310486
  7         2.52339406        3.36574470        6.74592036
  6        -1.07629168       -2.94249638        9.93308945
  7        -1.09144566       -4.10475346        9.93806425

@aug-cc-pVTZ.gbs/N

