%Chk=BLIND02212
%Mem=2GB
%NProcShared=16
#T M05/Gen test Massage Symmetry=None SCF=(tight,maxcyc=60)

M05 opt

0 1
  6         0.59891535       -0.01751629        0.82589496
  6         0.49663544        1.26655307        0.22047663
 16         0.49426658       -1.55024444       -0.02751566
 16         0.21198899        1.52938178       -1.50708981
  6        -0.64671232       -1.12407608       -1.31618542
  6        -0.75530832        0.09776298       -1.90181352
  6         0.86403593        0.12434077        2.17307382
  7         0.65777587        2.31233239        0.99393601
 16         0.98554092        1.81249006        2.54752688
  6        -1.44736516       -2.22395174       -1.74082434
  7        -2.05981654       -3.15580026       -2.06908442
  6        -1.67682926        0.32332548       -2.96664339
  7        -2.39204935        0.54461800       -3.85569681
  6         1.05228812       -0.88951320        3.14355292
  7         1.21865176       -1.70848931        3.95144969
  6        -0.07359936       -0.16720882       11.07294918
  6        -0.78976427        0.98030398       10.63006225
 16         0.21445221       -1.61250384       10.11552282
 16        -1.48710841        1.15141291        9.01172322
  6         0.33314602       -0.90596596        8.49353697
  6        -0.34396064        0.18941149        8.05842909
  6         0.29841488       -0.00165203       12.39185008
  7        -0.96649402        1.95085541       11.49299710
 16        -0.29110454        1.52826447       12.95456573
  6         1.19923456       -1.63495031        7.62776442
  7         1.89609050       -2.27544580        6.95296788
  6        -0.21230060        0.64938317        6.71491370
  7        -0.15808764        1.04193738        5.62226175
  6         1.01215288       -0.89864208       13.22320762
  7         1.58878308       -1.62638130       13.92248521

@aug-cc-pVTZ.gbs/N

