%Chk=BLIND01803
%Mem=2GB
%NProcShared=16
#T M05/Gen test Massage Symmetry=None SCF=(tight,maxcyc=60)

M05 opt

0 1
  6        -0.02994646        0.41488045       -0.93171151
  6        -0.04105814       -1.00837504       -0.93856666
 16        -0.70801231        1.42636671        0.33542656
 16        -0.72001988       -2.00177576        0.36018439
  6        -0.41881587        0.40262118        1.75402890
  6        -0.42555936       -0.95662553        1.76088323
  6         0.52996500        0.88028276       -2.10440203
  7         0.45502920       -1.61009151       -1.99198712
 16         0.95777807       -0.47330895       -3.09918443
  6        -0.21339705        1.14940077        2.95036205
  7        -0.07524036        1.80080554        3.90313567
  6        -0.22769819       -1.68667390        2.96994165
  7        -0.10017285       -2.32154965        3.93513397
  6         0.72506475        2.22178234       -2.51364940
  7         0.88438350        3.31675341       -2.86967160
  6        -0.03409244        0.41498076        8.66847567
  6        -0.04457859       -1.00827884        8.66149060
 16        -0.70723780        1.42599948        9.93860681
 16        -0.71756363       -2.00215117        9.96298869
  6        -0.41155072        0.40221341       11.35584120
  6        -0.41763995       -0.95703708       11.36255491
  6         0.52062139        0.88078448        7.49347665
  7         0.44730879       -1.60963778        7.60589870
 16         0.94482983       -0.47248824        6.49671855
  6        -0.20139832        1.14894093       12.55138444
  7        -0.05949759        1.80029250       13.50364403
  6        -0.21431195       -1.68714240       12.57067158
  7        -0.08239822       -2.32207761       13.53523478
  6         0.71336502        2.22242387        7.08357168
  7         0.87066733        3.31751178        6.72701263

@aug-cc-pVTZ.gbs/N

