%Chk=BLIND02221
%Mem=2GB
%NProcShared=16
#T M05/Gen test Massage Symmetry=None SCF=(tight,maxcyc=60)

M05 opt

0 1
  6        -0.22833367        0.66854960       -0.73621605
  6        -0.59606395       -0.67113660       -1.04579960
 16         1.13121517        1.13738505        0.27390123
 16         0.24858493       -2.09980301       -0.42930231
  6         1.16074699       -0.21389568        1.42163392
  6         0.81137852       -1.49682347        1.13935390
  6        -1.05778701        1.54436540       -1.40722801
  7        -1.60367820       -0.84563149       -1.86563194
 16        -2.18029785        0.63410864       -2.36442633
  6         1.64364938        0.15697584        2.71017932
  7         2.06560173        0.50195516        3.73689179
  6         0.91695613       -2.52149217        2.12568517
  7         1.01436086       -3.39299332        2.88852472
  6        -1.03644380        2.96018356       -1.39411855
  7        -1.02767547        4.12248683       -1.40249347
  6        -0.22833376       -0.66854949        4.92898387
  6        -0.59606385        0.67113680        4.61940047
 16         1.13121501       -1.13738524        5.93910110
 16         0.24858522        2.09980303        5.23589791
  6         1.16074702        0.21389537        7.08683394
  6         0.81137873        1.49682324        6.80455406
  6        -1.05778723       -1.54436510        4.25797182
  7        -1.60367809        0.84563191        3.79956815
 16        -2.18029793       -0.63410808        3.30077360
  6         1.64364936       -0.15697636        8.37537930
  7         2.06560166       -0.50195586        9.40209174
  6         0.91695648        2.52149181        7.79088544
  7         1.01436132        3.39299287        8.55372509
  6        -1.03644421       -2.96018326        4.27108113
  7        -1.02767604       -4.12248653        4.26270608

@aug-cc-pVTZ.gbs/N

