%Chk=BLIND01143
%Mem=2GB
%NProcShared=16
#T M05/Gen test Massage Symmetry=None SCF=(tight,maxcyc=60)

M05 opt

0 1
  6         0.84672799       -0.31282745        0.47570959
  6         0.76228842        1.10029682        0.32814120
 16         0.16167351       -1.48936454       -0.63558581
 16        -0.08471177        1.91069116       -0.99867454
  6        -1.27606683       -0.61107747       -1.18842993
  6        -1.37020871        0.73724897       -1.33264210
  6         1.60907033       -0.61889046        1.58497187
  7         1.38181278        1.83741391        1.21735883
 16         2.16155900        0.85475726        2.31157025
  6        -2.36074041       -1.47089910       -1.52795852
  7        -3.20801548       -2.21325481       -1.81470924
  6        -2.56160534        1.34180830       -1.83166517
  7        -3.50095592        1.87453580       -2.26148843
  6         1.95473029       -1.89627495        2.08893269
  7         2.25579520       -2.93653555        2.51120478
  6         0.46228158        0.43424491        8.98128515
  6         1.23763418       -0.58138198        8.35426280
 16        -0.70081571        1.46863678        8.16534716
 16         1.13053414       -0.99285551        6.63559836
  6        -1.29992880        0.35890323        6.91888134
  6        -0.57080341       -0.61534878        6.31319723
  6         0.81428688        0.53156911       10.31242131
  7         2.10537324       -1.22301700        9.09803255
 16         2.07388716       -0.61165753       10.64598769
  6        -2.65449074        0.60785463        6.55244605
  7        -3.75267211        0.86427681        6.27059794
  6        -1.13687562       -1.42542201        5.28495331
  7        -1.54750152       -2.08878241        4.42340501
  6         0.30303628        1.41411758       11.29471428
  7        -0.09842868        2.13714922       12.11150498

@aug-cc-pVTZ.gbs/N

