%Chk=BLIND00628
%Mem=2GB
%NProcShared=16
#T M05/Gen test Massage Symmetry=None SCF=(tight,maxcyc=60)

M05 opt

0 1
  6        -0.14898528       -0.06455028        1.00734580
  6        -0.31956109        1.24913008        0.48679372
 16        -0.47365538       -1.55157319        0.12878514
 16        -0.86273865        1.60080355       -1.16119665
  6        -0.05230515       -1.05056272       -1.51911490
  6        -0.20904107        0.20003796       -2.02810985
  6         0.24144740        0.00716192        2.32936051
  7        -0.08912352        2.25329900        1.29698094
 16         0.33184738        1.67321587        2.79938034
  6         0.44471979       -2.12011011       -2.31919255
  7         0.82199204       -3.02846972       -2.93866126
  6         0.11840370        0.48740392       -3.38610199
  7         0.34425508        0.75973752       -4.49323870
  6         0.50870946       -1.05574703        3.22600091
  7         0.72301322       -1.91568469        3.97811595
  6        -0.86271679        0.44018239        6.71100208
  6        -0.54618073       -0.76601213        7.39709708
 16         0.31228292        1.55629627        6.03116229
 16         1.10224742       -1.35981990        7.65139082
  6         1.59365618        0.42588231        5.55748632
  6         1.90535088       -0.72909415        6.20286981
  6        -2.22899648        0.63622815        6.72321195
  7        -1.54309124       -1.45509954        7.89628441
 16        -2.97562586       -0.66249465        7.59538753
  6         2.33466007        0.86418064        4.42174979
  7         2.92466628        1.27469690        3.50820609
  6         2.98957285       -1.54596711        5.76569340
  7         3.88162417       -2.22667835        5.46270367
  6        -2.96815827        1.70926341        6.16877204
  7        -3.59004126        2.58674902        5.72789056

@aug-cc-pVTZ.gbs/N

