%Chk=BLIND02621
%Mem=2GB
%NProcShared=16
#T M05/Gen test Massage Symmetry=None SCF=(tight,maxcyc=60)

M05 opt

0 1
  6         0.39318387       -0.04846755        0.94030115
  6        -0.03857335        1.25546011        0.56722605
 16        -0.31909583       -1.55157223        0.37298239
 16        -1.35890840        1.57682135       -0.56768833
  6        -0.81529313       -1.07603663       -1.26157450
  6        -1.22841666        0.16508366       -1.63115996
  6         1.40897925        0.04727902        1.86997613
  7         0.56396080        2.27416771        1.13029572
 16         1.70744602        1.72138451        2.20630183
  6        -0.78876359       -2.15627951       -2.19080061
  7        -0.77365450       -3.07294606       -2.90542441
  6        -1.65263550        0.43137590       -2.96647593
  7        -2.03418593        0.68631577       -4.03434815
  6         2.11441219       -0.99914740        2.51225686
  7         2.69726939       -1.84531386        3.05574165
  6         0.39383331       -0.04892368       11.89780569
  6        -0.03935198        1.25493252       11.52613895
 16        -0.31744171       -1.55218507       11.32964227
 16        -1.36070987        1.57607298       10.39235305
  6        -0.81512459       -1.07568612        9.69581774
  6        -1.22961673        0.16537673        9.32757421
  6         1.41013950        0.04694351       12.82690980
  7         0.56261618        2.27370084       12.08970392
 16         1.70729728        1.72102840       13.16449471
  6        -0.78820918       -2.15509890        8.76563859
  7        -0.77272506       -3.07113183        8.05021079
  6        -1.65493784        0.43243886        7.99276272
  7        -2.03740801        0.68795583        6.92535755
  6         2.11693908       -0.99939538       13.46782924
  7         2.70091690       -1.84550063       14.01020525

@aug-cc-pVTZ.gbs/N

