%Chk=BLIND00122
%Mem=2GB
%NProcShared=16
#T M05/Gen test Massage Symmetry=None SCF=(tight,maxcyc=60)

M05 opt

0 1
  6         0.53183557        0.60130548       -0.62983454
  6         0.85463030       -0.77979537       -0.74895902
 16        -1.04220585        1.23743832       -0.17569220
 16        -0.28330384       -2.09655506       -0.42363126
  6        -1.59612645       -0.03304381        0.93027758
  6        -1.29451910       -1.35452750        0.82850375
  6         1.62180510        1.36578485       -0.99430805
  7         2.06235800       -1.08359819       -1.15756356
 16         2.91425015        0.31233939       -1.46829646
  6        -2.45785599        0.45428807        1.95547000
  7        -3.17446216        0.89472805        2.75776749
  6        -1.83237441       -2.30416110        1.74657217
  7        -2.27058313       -3.11599683        2.45355308
  6         1.73223048        2.77696579       -1.03358965
  7         1.83768175        3.93358086       -1.08068029
  6         0.96114639        0.17435685        6.32890248
  6         0.09179393        1.28378915        6.13087997
 16         0.79911710       -1.02356298        7.60454007
 16        -1.32935804        1.62189388        7.13118023
  6        -0.96490037       -1.07332267        7.77742275
  6        -1.80613387       -0.02215235        7.59030992
  6         1.99123373        0.22234719        5.41134038
  7         0.39026727        2.11887751        5.16578872
 16         1.79889676        1.63362747        4.42335201
  6        -1.45086840       -2.34794949        8.19003782
  7        -1.79681960       -3.39777193        8.54973718
  6        -3.21000539       -0.15734051        7.80199565
  7        -4.35544835       -0.21397537        7.99088467
  6         3.07747854       -0.67362305        5.26141374
  7         3.98055876       -1.39352909        5.12997048

@aug-cc-pVTZ.gbs/N

