%Chk=C2H4_1
Density=Checkpoint
%Mem=6GB
%NProcShared=16
#T M05/Gen test Massage SCF=(tight,maxcyc=20)

M05 opt

0 1
 6        0.66807781003          0.00000000000          3.50000000000
 6       -0.66807781003          0.00000000000          3.50000000000
 1        1.23491924972          0.00000000000          4.42453298021
 1        1.23491924972          0.00000000000          2.57546701979
 1       -1.23491924972          0.00000000000          4.42453298021
 1       -1.23491924972          0.00000000000          2.57546701979
 6        0.00000000000          0.66807781003          0.00000000000
 6        0.00000000000         -0.66807781003          0.00000000000
 1        0.00000000000          1.23491924972          0.92453298021
 1        0.00000000000          1.23491924972         -0.92453298021
 1        0.00000000000         -1.23491924972          0.92453298021
 1        0.00000000000         -1.23491924972         -0.92453298021

@aug-cc-pVTZ.gbs/N

