%Chk=CH400096
%Mem=2GB
%NProcShared=16
#T M05/Gen test Massage SCF=(tight,maxcyc=40)

M05 opt

0 1
  6         0.00000000        0.00000000        0.00000000
  1         0.96851013        0.00000000        0.53663217
  1        -0.78860488       -0.40766567        0.66173787
  1        -0.26106000        1.03610713       -0.29037158
  1         0.08115474       -0.62844146       -0.90799846
  6-Bq        0.00000000       0.00000000       2.96789278
  1-Bq       -0.40064786      -1.00234753       2.72138380
  1-Bq        0.66352794       0.34345290       2.15072895
  1-Bq       -0.83830174       0.71345019       3.08716126
  1-Bq        0.57542166      -0.05455556       3.91229713

@aug-cc-pVTZ.gbs/N

