%Chk=CH400295
%Mem=2GB
%NProcShared=16
#T M05/Gen test Massage Symmetry=None SCF=(tight,maxcyc=60)

M05 opt

0 1
  6         0.00000000        0.00000000        0.00000000
  1         0.98291812        0.00000000        0.50976263
  1        -0.21578208        1.01525099       -0.38560274
  1         0.02122154       -0.71803709       -0.84259025
  1        -0.78835757       -0.29721390        0.71843037
  0        -0.65041133        0.00000000       -0.33731741
  0         0.14278617       -0.67180647        0.25515899
  0        -0.01404260        0.47513568        0.55755433
  0         0.52166777        0.19667080       -0.47539591
  6         0.00000000        0.00000000        3.37693789
  1         0.22215934        0.90625269        2.78083619
  1         0.77577725       -0.12835714        4.15647625
  1        -0.99167719        0.10820295        3.85741101
  1        -0.00625940       -0.88609851        2.71302809
  0        -0.14700609       -0.59968070        3.77138713
  0        -0.51334318        0.08493580        2.86110592
  0         0.65620734       -0.07159948        3.05900177
  0         0.00414193        0.58634438        3.81625674

@aug-cc-pVTZ.gbs/N

