%Chk=CH400181
%Mem=2GB
%NProcShared=16
#T M05/Gen test Massage SCF=(tight,maxcyc=40)

M05 opt

0 1
  6         0.00000000        0.00000000        0.00000000
  1         0.58083538        0.00000000        0.94266443
  1         0.16385830       -0.95575413       -0.53448149
  1        -1.07702560        0.11425019        0.23010584
  1         0.33233193        0.84150394       -0.63828878
  0        -0.38434729        0.00000000       -0.62377488
  0        -0.10842744        0.63243653        0.35367424
  0         0.71268364       -0.07560103       -0.15226441
  0        -0.21990891       -0.55683550        0.42236505
  6         0.00000000        0.00000000        3.66527236
  1         0.24765233        1.06235623        3.47539472
  1         0.37879365       -0.29463065        4.66311709
  1        -1.09859372       -0.13432454        3.63310525
  1         0.47214774       -0.63340104        2.88947239
  0        -0.16387518       -0.70297670        3.79091718
  0        -0.25065332        0.19496142        3.00498387
  0         0.72695558        0.08888452        3.68655781
  0        -0.31242708        0.41913076        4.17863058

@aug-cc-pVTZ.gbs/N

