%Chk=CH400073
%Mem=2GB
%NProcShared=16
#T M05/Gen test Massage Symmetry=None SCF=(tight,maxcyc=60)

M05 opt

0 1
  6         0.00000000        0.00000000        0.00000000
  1         0.84086259        0.00000000        0.72037217
  1        -0.83612966        0.59987205        0.40868897
  1         0.33562321        0.43995526       -0.95905286
  1        -0.34035614       -1.03982731       -0.17000828
  0        -0.55641111        0.00000000       -0.47668083
  0         0.55327926       -0.39694414       -0.27043549
  0        -0.22208680       -0.29112485        0.63461934
  0         0.22521865        0.68806898        0.11249698
  6         0.00000000        0.00000000        3.45940878
  1         0.65745643       -0.15551975        2.58216844
  1         0.05762240       -0.88299259        4.12498350
  1         0.32926834        0.90104911        4.01229107
  1        -1.04434717        0.13746323        3.11819212
  0        -0.43504856        0.10290970        4.03989158
  0        -0.03812959        0.58428915        3.01898823
  0        -0.21788169       -0.59623741        3.09355847
  0         0.69105984       -0.09096143        3.68519685

@aug-cc-pVTZ.gbs/N

