%Chk=CH400032
%Mem=2GB
%NProcShared=16
#T M05/Gen test Massage Symmetry=None SCF=(tight,maxcyc=60)

M05 opt

0 1
  6         0.00000000        0.00000000        0.00000000
  1         0.92875150        0.00000000        0.60283215
  1        -0.85214456        0.31092362        0.63495047
  1         0.10829789        0.70756707       -0.84475225
  1        -0.18490483       -1.01849069       -0.39303037
  0        -0.61456849        0.00000000       -0.39890288
  0         0.56387656       -0.20574272       -0.42015604
  0        -0.07166231       -0.46820751        0.55898496
  0         0.12235424        0.67395023        0.26007396
  6         0.00000000        0.00000000        3.41489176
  1        -0.67649035       -0.83275164        3.68851826
  1         0.75464707       -0.36069933        2.68936454
  1        -0.58883390        0.81910583        2.95846407
  1         0.51067718        0.37434514        4.32322017
  0         0.44764359        0.55104398        3.23382909
  0        -0.49936104        0.23868003        3.89498377
  0         0.38964003       -0.54201434        3.71691666
  0        -0.33792258       -0.24770967        2.81383753

@aug-cc-pVTZ.gbs/N

