%Chk=CH400158
%Mem=2GB
%NProcShared=16
#T M05/Gen test Massage Symmetry=None SCF=(tight,maxcyc=60)

M05 opt

0 1
  6         0.00000000        0.00000000        0.00000000
  1         1.10666001        0.00000000        0.03591067
  1        -0.39694275        0.58432541        0.85263487
  1        -0.33844645        0.45700139       -0.95004720
  1        -0.37127080       -1.04132679        0.06150166
  0        -0.73229316        0.00000000       -0.02376262
  0         0.26266284       -0.38665669       -0.56420100
  0         0.22395498       -0.30240452        0.62866017
  0         0.24567534        0.68906121       -0.04069655
  6         0.00000000        0.00000000        2.95327804
  1         1.08652763        0.08877781        2.75946842
  1        -0.52639454       -0.22819601        2.00627153
  1        -0.17971739       -0.81487394        3.68106102
  1        -0.38041569        0.95429214        3.36631119
  0        -0.71897127       -0.05874558        3.08152471
  0         0.34832299        0.15100064        3.57992614
  0         0.11892164        0.53921404        2.47169337
  0         0.25172664       -0.63146910        2.67996795

@aug-cc-pVTZ.gbs/N

