%Chk=CH400169
%Mem=2GB
%NProcShared=16
#T M05/Gen test Massage SCF=(tight,maxcyc=40)

M05 opt

0 1
  6         0.00000000        0.00000000        0.00000000
  1         0.64369522        0.00000000        0.90091199
  1        -0.47515957       -0.99357335       -0.11411108
  1        -0.78438412        0.77415461        0.10682767
  1         0.61584847        0.21941874       -0.89362858
  0        -0.42594257        0.00000000       -0.59614668
  0         0.31442006        0.65746206        0.07550898
  0         0.51903848       -0.51226946       -0.07068944
  0        -0.40751596       -0.14519260        0.59132714
  6         0.00000000        0.00000000        3.85432553
  1        -0.55379127       -0.51334032        4.66412976
  1        -0.37036606        1.03871055        3.75485029
  1         1.08004257        0.01498654        4.09777863
  1        -0.15588524       -0.54035678        2.90054342
  0         0.36645181        0.33968482        3.31846619
  0         0.24507665       -0.68733001        3.92014975
  0        -0.71468001       -0.00991681        3.69322903
  0         0.10315155        0.35756200        4.48545714

@aug-cc-pVTZ.gbs/N

