%Chk=CH400289
%Mem=2GB
%NProcShared=16
#T M05/Gen test Massage Symmetry=None SCF=(tight,maxcyc=60)

M05 opt

0 1
  6-Bq        0.00000000       0.00000000       0.00000000
  1-Bq        0.81945221       0.00000000       0.74463684
  1-Bq       -0.71718119       0.80859760       0.24043093
  1-Bq        0.41980369       0.16749786      -1.01078944
  1-Bq       -0.52207472      -0.97609545       0.02572167
  6         0.00000000        0.00000000        4.03435364
  1        -0.00169606       -0.72407584        3.19667993
  1        -0.23402731       -0.52797346        4.97905529
  1         0.99879685        0.47144067        4.11267670
  1        -0.76307348        0.78060863        3.84900266

@aug-cc-pVTZ.gbs/N

