%Chk=CH400163
%Mem=2GB
%NProcShared=16
#T M05/Gen test Massage SCF=(tight,maxcyc=20)

M05 opt

0 1
  6         0.00000000        0.00000000        0.00000000
  1         1.03358982        0.00000000        0.39708695
  1        -0.48255917       -0.97037659        0.22691820
  1        -0.57689490        0.81850634        0.47246756
  1         0.02586425        0.15187025       -1.09647272
  0        -0.68394154        0.00000000       -0.26275826
  0         0.31931648        0.64211243       -0.15015510
  0         0.38173982       -0.54161765       -0.31263872
  0        -0.01711475       -0.10049477        0.72555208
  6         0.00000000        0.00000000        2.85416994
  1         0.80241792        0.31874886        2.16098122
  1         0.36509137       -0.83576059        3.48202221
  1        -0.28715498        0.85049437        3.50238850
  1        -0.88035432       -0.33348263        2.27128782
  0        -0.53097171       -0.21092079        3.31286308
  0        -0.24158632        0.55303504        2.43871088
  0         0.19001466       -0.56278460        2.42523421
  0         0.58254337        0.22067035        3.23987158

@aug-cc-pVTZ.gbs/N

