%Chk=CH400241
%Mem=2GB
%NProcShared=16
#T M05/Gen test Massage Symmetry=None SCF=(tight,maxcyc=60)

M05 opt

0 1
  6         0.00000000        0.00000000        0.00000000
  1         1.09082369        0.00000000        0.18997271
  1        -0.45112953        0.91079599        0.43922518
  1        -0.18451517       -0.01362660       -1.09167505
  1        -0.45517899       -0.89716939        0.46247717
  0        -0.72181404        0.00000000       -0.12570773
  0         0.29851903       -0.60268707       -0.29064174
  0         0.12209639        0.00901692        0.72237740
  0         0.30119861        0.59367015       -0.30602792
  6         0.00000000        0.00000000        3.79855370
  1         0.78929633        0.61385904        3.32297579
  1         0.07707139        0.08818305        4.89958491
  1        -0.99462074        0.35736347        3.46839178
  1         0.12825302       -1.05940555        3.50326234
  0        -0.52228896       -0.40619953        4.11325058
  0        -0.05099927       -0.05835202        3.06998521
  0         0.65815513       -0.23647265        4.01702669
  0        -0.08486690        0.70102420        3.99395233

@aug-cc-pVTZ.gbs/N

