%Chk=CH400211
%Mem=2GB
%NProcShared=16
#T M05/Gen test Massage Symmetry=None SCF=(tight,maxcyc=60)

M05 opt

0 1
  6         0.00000000        0.00000000        0.00000000
  1         0.69626050        0.00000000        0.86093395
  1        -0.60810675       -0.92514813        0.01711946
  1        -0.66704955        0.88138151        0.06478809
  1         0.57889579        0.04376662       -0.94284150
  0        -0.46072579        0.00000000       -0.56969262
  0         0.40239316        0.61218409       -0.01132820
  0         0.44139647       -0.58322307       -0.04287123
  0        -0.38306384       -0.02896102        0.62389205
  6         0.00000000        0.00000000        3.93513490
  1        -0.20874190        1.05382668        4.20320599
  1        -0.56119969       -0.26575115        3.01839219
  1         1.08487245       -0.12669707        3.75351556
  1        -0.31493086       -0.66137845        4.76542585
  0         0.13812758       -0.69733257        3.75774832
  0         0.37135407        0.17585144        4.54175699
  0        -0.71787601        0.08383731        4.05531508
  0         0.20839437        0.43764382        3.38571920

@aug-cc-pVTZ.gbs/N

