%Chk=CH400241
%Mem=2GB
%NProcShared=16
#T M05/Gen test Massage Symmetry=None SCF=(tight,maxcyc=60)

M05 opt

0 1
  6         0.00000000        0.00000000        0.00000000
  1         1.09082369        0.00000000        0.18997271
  1        -0.45112953        0.91079599        0.43922518
  1        -0.18451517       -0.01362660       -1.09167505
  1        -0.45517899       -0.89716939        0.46247717
  6         0.00000000        0.00000000        3.79855370
  1         0.78929633        0.61385904        3.32297579
  1         0.07707139        0.08818305        4.89958491
  1        -0.99462074        0.35736347        3.46839178
  1         0.12825302       -1.05940555        3.50326234

@aug-cc-pVTZ.gbs/N

