%Chk=CH400277
%Mem=2GB
%NProcShared=16
#T M05/Gen test Massage Symmetry=None SCF=(tight,maxcyc=60)

M05 opt

0 1
  6-Bq        0.00000000       0.00000000       0.00000000
  1-Bq        1.09301344       0.00000000       0.17693948
  1-Bq       -0.42703315       0.96738887       0.32830994
  1-Bq       -0.19911076      -0.14392532      -1.07964178
  1-Bq       -0.46686953      -0.82346355       0.57439236
  6         0.00000000        0.00000000        4.72148828
  1         0.18855967       -0.14432677        5.80296921
  1         0.79140632       -0.50880986        4.13772932
  1        -0.98627049       -0.42895684        4.45832959
  1         0.00630451        1.08209347        4.48692501

@aug-cc-pVTZ.gbs/N

