%Chk=CH400020
%Mem=2GB
%NProcShared=16
#T M05/Gen test Massage Symmetry=None SCF=(tight,maxcyc=60)

M05 opt

0 1
  6         0.00000000        0.00000000        0.00000000
  1         1.02503758        0.00000000       -0.41866921
  1        -0.59884790        0.79195514       -0.49007572
  1        -0.47242886       -0.98498458       -0.18056106
  1         0.04623917        0.19302944        1.08930598
  0        -0.67828240        0.00000000        0.27703956
  0         0.39626644       -0.52404833        0.32429029
  0         0.31261311        0.65177875        0.11947990
  0        -0.03059714       -0.12773041       -0.72080975
  6         0.00000000        0.00000000        4.48959875
  1        -0.95955291        0.07822063        5.03652261
  1         0.48388623       -0.96656282        4.72959122
  1        -0.19032019        0.05706009        3.40032912
  1         0.66598686        0.83128210        4.79195206
  0         0.63495023       -0.05175974        4.12769122
  0        -0.32019462        0.63958880        4.33079222
  0         0.12593766       -0.03775750        5.21038445
  0        -0.44069328       -0.55007156        4.28952714

@aug-cc-pVTZ.gbs/N

