%Chk=CH400217
%Mem=2GB
%NProcShared=16
#T M05/Gen test Massage Symmetry=None SCF=(tight,maxcyc=60)

M05 opt

0 1
  6         0.00000000        0.00000000        0.00000000
  1         0.90193273        0.00000000        0.64226420
  1         0.00266592       -0.90351769       -0.64002706
  1        -0.90617641       -0.00108308        0.63626181
  1         0.00157776        0.90460077       -0.63849895
  0        -0.59682212        0.00000000       -0.42499564
  0        -0.00176408        0.59787091        0.42351529
  0         0.59963022        0.00071669       -0.42102377
  0        -0.00104402       -0.59858760        0.42250412
  6         0.00000000        0.00000000        2.51697942
  1         0.14839544        0.50685368        3.49015160
  1        -1.06562652        0.06809222        2.22408093
  1         0.62655962        0.48964651        1.74648913
  1         0.29067146       -1.06459242        2.60719602
  0        -0.09819544       -0.33539252        1.87301712
  0         0.70514070       -0.04505762        2.71079465
  0        -0.41460369       -0.32400628        3.02682415
  0        -0.19234157        0.70445642        2.45728177

@aug-cc-pVTZ.gbs/N

