%Chk=CH400279
%Mem=2GB
%NProcShared=16
#T M05/Gen test Massage Symmetry=None SCF=(tight,maxcyc=60)

M05 opt

0 1
  6         0.00000000        0.00000000        0.00000000
  1         1.10712075        0.00000000        0.01641951
  1        -0.37657950       -0.91175032        0.50287691
  1        -0.37697974        0.89616766        0.52986391
  1        -0.35356151        0.01558267       -1.04916033
  0        -0.73259804        0.00000000       -0.01086503
  0         0.24918818        0.60331856       -0.33276103
  0         0.24945302       -0.59300728       -0.35061872
  0         0.23395684       -0.01031128        0.69424478
  6         0.00000000        0.00000000        3.19516047
  1        -0.99685120       -0.14318445        2.73497370
  1         0.22105294       -0.85037581        3.86894274
  1         0.76943534        0.05100768        2.40058296
  1         0.00636291        0.94255257        3.77614250
  0         0.65963106        0.09474725        3.49967281
  0        -0.14627398        0.56270615        2.74930887
  0        -0.50914665       -0.03375253        3.72094407
  0        -0.00421043       -0.62370086        2.81071615

@aug-cc-pVTZ.gbs/N

