%Chk=CH400157
%Mem=2GB
%NProcShared=16
#T M05/Gen test Massage SCF=(tight,maxcyc=40)

M05 opt

0 1
  6         0.00000000        0.00000000        0.00000000
  1         1.10583458        0.00000000        0.05581973
  1        -0.37690730       -1.03086705        0.14573941
  1        -0.40947046        0.65794253        0.79084229
  1        -0.31945683        0.37292452       -0.99240143
  0        -0.73174696        0.00000000       -0.03693673
  0         0.24940509        0.68213985       -0.09643790
  0         0.27095261       -0.43537022       -0.52331194
  0         0.21138927       -0.24676962        0.65668658
  6         0.00000000        0.00000000        2.93934005
  1        -0.88160907        0.63807987        3.14331425
  1         0.67643454        0.51978855        2.23347736
  1         0.53778918       -0.20012540        3.88629231
  1        -0.33261464       -0.95774302        2.49427629
  0         0.58337366       -0.42222681        2.80436734
  0        -0.44760665       -0.34395171        3.40641975
  0        -0.35586299        0.13242591        2.31272785
  0         0.22009599        0.63375261        3.23384527

@aug-cc-pVTZ.gbs/N

