%Chk=CH400093
%Mem=2GB
%NProcShared=16
#T M05/Gen test Massage Symmetry=None SCF=(tight,maxcyc=60)

M05 opt

0 1
  6         0.00000000        0.00000000        0.00000000
  1         0.86256202        0.00000000        0.69424255
  1        -0.81154689        0.62550861        0.41966246
  1         0.31414305        0.41104001       -0.97895159
  1        -0.36515818       -1.03654862       -0.13495343
  0        -0.57076994        0.00000000       -0.45939048
  0         0.53701248       -0.41390822       -0.27769681
  0        -0.20787306       -0.27199120        0.64778663
  0         0.24163052        0.68589942        0.08930066
  6         0.00000000        0.00000000        2.80901872
  1        -1.04282350        0.32589529        2.98873338
  1         0.20058862       -0.92708971        3.38020593
  1         0.14520850       -0.19348148        1.72852561
  1         0.69702638        0.79467590        3.13860997
  0         0.69005161       -0.21564969        2.69009890
  0        -0.13273243        0.61346886        2.43105577
  0        -0.09608659        0.12802953        3.52399686
  0        -0.46123258       -0.52584870        2.59092336

@aug-cc-pVTZ.gbs/N

