%Chk=CH400081
%Mem=2GB
%NProcShared=16
#T M05/Gen test Massage Symmetry=None SCF=(tight,maxcyc=60)

M05 opt

0 1
  6         0.00000000        0.00000000        0.00000000
  1         1.01987407        0.00000000        0.43109494
  1        -0.73471669       -0.24847918        0.79021227
  1        -0.22636071        1.00231564       -0.41244411
  1        -0.05879667       -0.75383645       -0.80886310
  0        -0.67486563        0.00000000       -0.28526184
  0         0.48617281        0.16442232       -0.52289505
  0         0.14978620       -0.66324696        0.27292032
  0         0.03890662        0.49882464        0.53523658
  6         0.00000000        0.00000000        4.76271864
  1         0.69644717       -0.05345980        3.90359737
  1         0.12883420       -0.89719792        5.39866171
  1         0.21682987        0.90831317        5.35764547
  1        -1.04211124        0.04234455        4.39096999
  0        -0.46084931        0.03537513        5.33121178
  0        -0.08525148        0.59368903        4.34190578
  0        -0.14347951       -0.60104415        4.36904682
  0         0.68958029       -0.02802001        5.00871017

@aug-cc-pVTZ.gbs/N

