%Chk=CH400031
%Mem=2GB
%NProcShared=16
#T M05/Gen test Massage Symmetry=None SCF=(tight,maxcyc=60)

M05 opt

0 1
  6         0.00000000        0.00000000        0.00000000
  1         0.90052362        0.00000000       -0.64423845
  1         0.12785557        0.74066618        0.81305136
  1        -0.88740283        0.26675731       -0.60608804
  1        -0.14097636       -1.00742349        0.43727513
  6-Bq        0.00000000       0.00000000       3.16378907
  1-Bq        0.62060092       0.38292201       2.33059570
  1-Bq        0.19528685       0.59836857       4.07472488
  1-Bq       -1.07071423       0.07878782       2.89295799
  1-Bq        0.25482646      -1.06007840       3.35687770

@aug-cc-pVTZ.gbs/N

