%Chk=CH400013
%Mem=2GB
%NProcShared=16
#T M05/Gen test Massage Symmetry=None SCF=(tight,maxcyc=60)

M05 opt

0 1
  6         0.00000000        0.00000000        0.00000000
  1         0.96894556        0.00000000        0.53584556
  1        -0.65776674       -0.78179513        0.42676135
  1        -0.48324719        0.98999793        0.11118545
  1         0.17206837       -0.20820280       -1.07379236
  0        -0.64116549        0.00000000       -0.35457687
  0         0.43525390        0.51732530       -0.28239425
  0         0.31977175       -0.65509615       -0.07357304
  0        -0.11386016        0.13777085        0.71054415
  6         0.00000000        0.00000000        2.40209012
  1         0.13802700        0.41161517        3.42067122
  1        -0.80234970       -0.76287043        2.41788953
  1        -0.28068819        0.81654864        1.70894625
  1         0.94501089       -0.46529338        2.06085348
  0        -0.09133449       -0.27237180        1.72808007
  0         0.53092657        0.50480255        2.39163542
  0         0.18573549       -0.54032221        2.86075359
  0        -0.62532757        0.30789146        2.62789141

@aug-cc-pVTZ.gbs/N

