%Chk=CH400043
%Mem=2GB
%NProcShared=16
#T M05/Gen test Massage Symmetry=None SCF=(tight,maxcyc=60)

M05 opt

0 1
  6         0.00000000        0.00000000        0.00000000
  1         1.10229018        0.00000000       -0.10460552
  1        -0.45091710       -0.55572573       -0.84488380
  1        -0.28021884       -0.48744796        0.95386469
  1        -0.37115424        1.04317369       -0.00437537
  0        -0.72940158        0.00000000        0.06921901
  0         0.29837846        0.36773187        0.55907200
  0         0.18542491        0.32255147       -0.63118626
  0         0.24559820       -0.69028333        0.00289524
  6         0.00000000        0.00000000        4.91121084
  1        -0.71584801       -0.81884658        5.11866654
  1        -0.12685316        0.80096576        5.66509948
  1         1.03414958       -0.39257685        4.96024165
  1        -0.19144841        0.41045767        3.90083568
  0         0.47368713        0.54184279        4.77393436
  0         0.08394060       -0.53001079        4.41235167
  0        -0.68431195        0.25977386        4.87876643
  0         0.12668422       -0.27160586        5.57979090

@aug-cc-pVTZ.gbs/N

