%Chk=CH400104
%Mem=2GB
%NProcShared=16
#T M05/Gen test Massage SCF=(tight,maxcyc=40)

M05 opt

0 1
  6         0.00000000        0.00000000        0.00000000
  1         1.10466392        0.00000000        0.07552206
  1        -0.29724186       -0.08263616       -1.06339292
  1        -0.40859229       -0.85990466        0.56533378
  1        -0.39882977        0.94254082        0.42253708
  0        -0.73097232        0.00000000       -0.04997406
  0         0.19668930        0.05468156        0.70366269
  0         0.27037151        0.56901152       -0.37408965
  0         0.26391151       -0.62369308       -0.27959898
  6         0.00000000        0.00000000        3.04702117
  1         0.08608921        1.10346249        3.07776436
  1        -0.22560246       -0.32392276        2.01253408
  1         0.95480130       -0.45400161        3.37599378
  1        -0.81528805       -0.32553812        3.72179245
  0        -0.05696649       -0.73017731        3.02667795
  0         0.14928446        0.21434444        3.73155645
  0        -0.63180602        0.30041952        2.82933516
  0         0.53948806        0.21541335        2.60051511

@aug-cc-pVTZ.gbs/N

