%Chk=CH400025
%Mem=2GB
%NProcShared=16
#T M05/Gen test Massage Symmetry=None SCF=(tight,maxcyc=60)

M05 opt

0 1
  6-Bq        0.00000000       0.00000000       0.00000000
  1-Bq        0.24993862       0.00000000      -1.07866429
  1-Bq       -0.92386592      -0.58762424       0.16478919
  1-Bq        0.83272639      -0.45341428       0.57181134
  1-Bq       -0.15879909       1.04103852       0.34206376
  6         0.00000000        0.00000000        4.44607019
  1         0.95881770        0.18254913        3.92326010
  1        -0.83905817        0.13662750        3.73663361
  1        -0.01445523       -1.03472254        4.83993092
  1        -0.10530430        0.71554591        5.28445615

@aug-cc-pVTZ.gbs/N

