%Chk=CH400297
%Mem=2GB
%NProcShared=16
#T M05/Gen test Massage Symmetry=None SCF=(tight,maxcyc=60)

M05 opt

0 1
  6         0.00000000        0.00000000        0.00000000
  1         0.26021086        0.00000000        1.07623244
  1         0.92631971        0.05905692       -0.60368040
  1        -0.54355288       -0.93214032       -0.24829546
  1        -0.64297769        0.87308341       -0.22425659
  0        -0.17218534        0.00000000       -0.71215879
  0        -0.61295934       -0.03907883        0.39946418
  0         0.35967692        0.61681093        0.16430075
  0         0.42546777       -0.57773210        0.14839387
  6         0.00000000        0.00000000        3.82811193
  1         0.81616988       -0.04448448        3.08120242
  1        -0.97557810       -0.10761492        3.31561574
  1         0.12474046       -0.82103474        4.56045593
  1         0.03466776        0.97313414        4.35517364
  0        -0.54007158        0.02943604        4.32235291
  0         0.64555434        0.07121037        4.16723818
  0        -0.08254259        0.54329073        3.34350917
  0        -0.02294017       -0.64393714        3.47934747

@aug-cc-pVTZ.gbs/N

