%Chk=CH400311
%Mem=2GB
%NProcShared=16
#T M05/Gen test Massage Symmetry=None SCF=(tight,maxcyc=60)

M05 opt

0 1
  6         0.00000000        0.00000000        0.00000000
  1         1.05425266        0.00000000        0.33843359
  1        -0.54933685        0.81882534        0.50372616
  1        -0.03571114        0.15136159       -1.09626655
  1        -0.46920466       -0.97018693        0.25410680
  6         0.00000000        0.00000000        3.48452616
  1         0.01962716       -0.00498258        4.59158348
  1        -1.02281610        0.23954460        3.13459536
  1         0.70764776        0.76298368        3.10627161
  1         0.29554118       -0.99754569        3.10565421

@aug-cc-pVTZ.gbs/N

