%Chk=CH400012
%Mem=2GB
%NProcShared=16
#T M05/Gen test Massage SCF=(tight,maxcyc=40)

M05 opt

0 1
  6-Bq        0.00000000       0.00000000       0.00000000
  1-Bq        0.77937584       0.00000000      -0.78648538
  1-Bq       -0.59907357       0.92823111      -0.07405285
  1-Bq       -0.66114923      -0.87777511      -0.13556736
  1-Bq        0.48084696      -0.05045600       0.99610559
  6         0.00000000        0.00000000        3.81328077
  1        -0.64222515        0.74258674        4.32523560
  1         0.02025775        0.21578677        2.72745774
  1         1.02804810        0.05812557        4.22037350
  1        -0.40608069       -1.01649908        3.98005625

@aug-cc-pVTZ.gbs/N

