%Chk=CH400119
%Mem=2GB
%NProcShared=16
#T M05/Gen test Massage SCF=(tight,maxcyc=40)

M05 opt

0 1
  6         0.00000000        0.00000000        0.00000000
  1         1.08464944        0.00000000        0.22253438
  1        -0.51145054        0.73039613        0.65644938
  1        -0.15947079        0.28072382       -1.05912660
  1        -0.41372811       -1.01111996        0.18014284
  0        -0.71772844        0.00000000       -0.14725427
  0         0.33843433       -0.48331384       -0.43438218
  0         0.10552416       -0.18575907        0.70083961
  0         0.27376996        0.66907291       -0.11920316
  6         0.00000000        0.00000000        2.93901632
  1        -0.27814730       -1.06565599        3.05302223
  1        -0.91059573        0.62730042        2.99642317
  1         0.69815598        0.28788598        3.74876063
  1         0.49058706        0.15046959        1.95785925
  0         0.18405415        0.70516020        2.86357694
  0         0.60255455       -0.41509389        2.90102937
  0        -0.46198005       -0.19049838        2.40319663
  0        -0.32462865       -0.09956793        3.58826235

@aug-cc-pVTZ.gbs/N

