%Chk=CH400027
%Mem=2GB
%NProcShared=16
#T M05/Gen test Massage Symmetry=None SCF=(tight,maxcyc=60)

M05 opt

0 1
  6         0.00000000        0.00000000        0.00000000
  1         1.08472581        0.00000000        0.22216180
  1        -0.50106293       -0.77875773        0.60700765
  1        -0.42715071        0.99143889        0.24612428
  1        -0.15651217       -0.21268116       -1.07529374
  0        -0.71777898        0.00000000       -0.14700772
  0         0.33156069        0.51531541       -0.40166587
  0         0.28265189       -0.65604965       -0.16286405
  0         0.10356640        0.14073424        0.71153764
  6         0.00000000        0.00000000        3.78906236
  1        -0.09733732        0.96615258        3.25702796
  1        -0.54746318       -0.78486395        3.23205375
  1         1.06992069       -0.27605323        3.86012775
  1        -0.42512019        0.09476461        4.80703999
  0         0.06440953       -0.63931733        4.14111733
  0         0.36226442        0.51935599        4.15764313
  0        -0.70798221        0.18266847        3.74203735
  0         0.28130826       -0.06270713        3.11545163

@aug-cc-pVTZ.gbs/N

