%Chk=CH400187
%Mem=2GB
%NProcShared=16
#T M05/Gen test Massage Symmetry=None SCF=(tight,maxcyc=60)

M05 opt

0 1
  6         0.00000000        0.00000000        0.00000000
  1         0.71020666        0.00000000        0.84946598
  1        -0.89642778        0.59192124        0.26838861
  1         0.48638688        0.44871777       -0.88773088
  1        -0.30016576       -1.04063901       -0.23012371
  0        -0.46995417        0.00000000       -0.56210410
  0         0.59317941       -0.39168297       -0.17759668
  0        -0.32184933       -0.29692313        0.58742455
  0         0.19862409        0.68860610        0.15227623
  6         0.00000000        0.00000000        2.61129637
  1         0.24946245        0.25385761        3.65977659
  1        -0.60707545        0.81352303        2.16900050
  1         0.93376753       -0.12214821        2.02893568
  1        -0.57615453       -0.94523243        2.58747273
  0        -0.16507296       -0.16798131        1.91750164
  0         0.40171073       -0.53832012        2.90397004
  0        -0.61788767        0.08082726        2.99665299
  0         0.38124990        0.62547417        2.62706083

@aug-cc-pVTZ.gbs/N

