%Chk=CH400288
%Mem=2GB
%NProcShared=16
#T M05/Gen test Massage Symmetry=None SCF=(tight,maxcyc=60)

M05 opt

0 1
  6         0.00000000        0.00000000        0.00000000
  1         1.09903305        0.00000000       -0.13458200
  1        -0.44078016        0.84541539       -0.56300233
  1        -0.41811722       -0.95306473       -0.37793064
  1        -0.24013566        0.10764933        1.07551497
  0        -0.72724629        0.00000000        0.08905488
  0         0.29167070       -0.55942377        0.37254690
  0         0.27667430        0.63065691        0.25008225
  0         0.15890129       -0.07123314       -0.71168403
  6         0.00000000        0.00000000        3.46801559
  1        -0.57710338       -0.61909087        2.75410793
  1         0.79856625       -0.61414119        3.92748105
  1         0.45467491        0.85512639        2.93134481
  1        -0.67613778        0.37810566        4.25912858
  0         0.38187777        0.40966151        3.94041876
  0        -0.52842300        0.40638623        3.16398056
  0        -0.30086506       -0.56584968        3.82313852
  0         0.44741029       -0.25019806        2.94452452

@aug-cc-pVTZ.gbs/N

