%Chk=CH400147
%Mem=2GB
%NProcShared=16
#T M05/Gen test Massage SCF=(tight,maxcyc=40)

M05 opt

0 1
  6         0.00000000        0.00000000        0.00000000
  1         0.95811295        0.00000000        0.55498246
  1        -0.65434417       -0.80195769        0.39329827
  1        -0.49999607        0.97974639        0.12683415
  1         0.19622729       -0.17778870       -1.07511487
  0        -0.63399739        0.00000000       -0.36724003
  0         0.43298914        0.53066717       -0.26025123
  0         0.33085473       -0.64831256       -0.08392802
  0        -0.12984648        0.11764539        0.71141928
  6         0.00000000        0.00000000        3.34603939
  1         0.20695399       -1.02410448        2.97947968
  1        -0.40997270       -0.05149328        4.37329631
  1         0.93910474        0.58653866        3.35241376
  1        -0.73608603        0.48905909        2.67896779
  0        -0.13694449        0.67766496        3.58859732
  0         0.27128495        0.03407386        2.66628841
  0        -0.62141938       -0.38812124        3.34182137
  0         0.48707893       -0.32361758        3.78745044

@aug-cc-pVTZ.gbs/N

