%Chk=CH400098
%Mem=2GB
%NProcShared=16
#T M05/Gen test Massage Symmetry=None SCF=(tight,maxcyc=60)

M05 opt

0 1
  6         0.00000000        0.00000000        0.00000000
  1         0.86368773        0.00000000        0.69284158
  1        -0.12569086        1.01122146       -0.43315000
  1         0.17898585       -0.73010425       -0.81295622
  1        -0.91698272       -0.28111722        0.55326464
  0        -0.57151484        0.00000000       -0.45846344
  0         0.08317149       -0.66914007        0.28662171
  0        -0.11843756        0.48312069        0.53794505
  0         0.60678092        0.18601939       -0.36610333
  6         0.00000000        0.00000000        2.54259602
  1        -0.53599417        0.96885529        2.53864237
  1        -0.65657245       -0.78674220        2.12314961
  1         0.91656695        0.08275585        1.92693179
  1         0.27599967       -0.26486894        3.58166030
  0         0.35467521       -0.64110576        2.54521220
  0         0.43446362        0.52059885        2.82014985
  0        -0.60650580       -0.05476076        2.94999007
  0        -0.18263303        0.17526766        1.85503194

@aug-cc-pVTZ.gbs/N

