%Chk=CH400263
%Mem=2GB
%NProcShared=16
#T M05/Gen test Massage Symmetry=None SCF=(tight,maxcyc=60)

M05 opt

0 1
  6         0.00000000        0.00000000        0.00000000
  1         0.97997608        0.00000000        0.51539580
  1         0.15921221       -0.01481243       -1.09563590
  1        -0.57556525       -0.89656249        0.30147355
  1        -0.56362304        0.91137492        0.27876655
  0        -0.64846455        0.00000000       -0.34104496
  0        -0.10535305        0.00980160        0.72499835
  0         0.38085997        0.59326855       -0.19948947
  0         0.37295763       -0.60307015       -0.18446392
  6         0.00000000        0.00000000        4.03127832
  1        -0.00174248       -0.01388070        5.13843244
  1        -1.02439321        0.20259855        3.66309583
  1         0.68451207        0.79322259        3.67319019
  1         0.34162362       -0.98194044        3.65039482
  0         0.00115302        0.00918506        3.29865820
  0         0.67785601       -0.13406243        4.27491007
  0        -0.45295168       -0.52488702        4.26823049
  0        -0.22605736        0.64976439        4.28331452

@aug-cc-pVTZ.gbs/N

