%Chk=CH400146
%Mem=2GB
%NProcShared=16
#T M05/Gen test Massage SCF=(tight,maxcyc=40)

M05 opt

0 1
  6         0.00000000        0.00000000        0.00000000
  1         0.98231937        0.00000000        0.51091546
  1         0.12122582        0.37990455       -1.03293891
  1        -0.39995873       -1.03202019       -0.03087550
  1        -0.70358646        0.65211564        0.55289895
  0        -0.65001514        0.00000000       -0.33808025
  0        -0.08021690       -0.25138842        0.68351083
  0         0.26465856        0.68290290        0.02043077
  0         0.46557348       -0.43151448       -0.36586135
  6         0.00000000        0.00000000        3.65117389
  1         0.88259514        0.66796222        3.62222132
  1         0.23782947       -0.94856211        3.13189264
  1        -0.26743658       -0.21278374        4.70435323
  1        -0.85298803        0.49338364        3.14622839
  0        -0.58402615       -0.44200040        3.67033224
  0        -0.15737525        0.62767746        3.99478991
  0         0.17696671        0.14080213        2.95426968
  0         0.56443469       -0.32647919        3.98530374

@aug-cc-pVTZ.gbs/N

