%Chk=CH400266
%Mem=2GB
%NProcShared=16
#T M05/Gen test Massage Symmetry=None SCF=(tight,maxcyc=60)

M05 opt

0 1
  6         0.00000000        0.00000000        0.00000000
  1         0.95504856        0.00000000        0.56023942
  1         0.19947601       -0.20587216       -1.06949144
  1        -0.66747322       -0.78336887        0.40840994
  1        -0.48705135        0.98924103        0.10084208
  0        -0.63196964        0.00000000       -0.37071864
  0        -0.13199620        0.13622863        0.70769817
  0         0.44167682        0.51836667       -0.27025085
  0         0.32228902       -0.65459530       -0.06672868
  6         0.00000000        0.00000000        3.33656624
  1        -0.04511789        0.22010444        4.42077303
  1        -1.02503128       -0.15909335        2.94928580
  1         0.46683394        0.85239595        2.80602579
  1         0.60331523       -0.91340704        3.17018034
  0         0.02985517       -0.14564634        2.61913070
  0         0.67827823        0.10527440        3.59283539
  0        -0.30891087       -0.56404290        3.68763264
  0        -0.39922253        0.60441484        3.44666623

@aug-cc-pVTZ.gbs/N

