%Chk=CH400277
%Mem=2GB
%NProcShared=16
#T M05/Gen test Massage SCF=(tight,maxcyc=40)

M05 opt

0 1
  6         0.00000000        0.00000000        0.00000000
  1         1.09301344        0.00000000        0.17693948
  1        -0.42703315        0.96738887        0.32830994
  1        -0.19911076       -0.14392532       -1.07964178
  1        -0.46686953       -0.82346355        0.57439236
  0        -0.72326303        0.00000000       -0.11708345
  0         0.28257410       -0.64013541       -0.21724750
  0         0.13175451        0.09523750        0.71441480
  0         0.30893442        0.54489791       -0.38008385
  6         0.00000000        0.00000000        4.72148828
  1         0.18855967       -0.14432677        5.80296921
  1         0.79140632       -0.50880986        4.13772932
  1        -0.98627049       -0.42895684        4.45832959
  1         0.00630451        1.08209347        4.48692501
  0        -0.12477270        0.09550314        4.00585649
  0        -0.52368517        0.33668695        5.10777015
  0         0.65262965        0.28384703        4.89562425
  0        -0.00417179       -0.71603712        4.87670224

@aug-cc-pVTZ.gbs/N

