%Chk=CH400240
%Mem=2GB
%NProcShared=16
#T M05/Gen test Massage SCF=(tight,maxcyc=40)

M05 opt

0 1
  6         0.00000000        0.00000000        0.00000000
  1         1.10135618        0.00000000        0.11401985
  1        -0.32880025        0.97534608       -0.40813769
  1        -0.29929642       -0.80992913       -0.69312511
  1        -0.47325950       -0.16541695        0.98724294
  0        -0.72878354        0.00000000       -0.07544861
  0         0.21757195       -0.64540081        0.27007069
  0         0.19804883        0.53594198        0.45865105
  0         0.31316276        0.10945882       -0.65327314
  6         0.00000000        0.00000000        3.62731692
  1        -0.63913398        0.90125687        3.55499984
  1         0.66957205       -0.04925234        2.74684351
  1         0.60822532        0.05201569        4.55108220
  1        -0.63866339       -0.90402023        3.65634215
  0         0.42292433       -0.59637489        3.67517020
  0        -0.44306565        0.03259099        4.20993910
  0        -0.40247162       -0.03441955        3.01604789
  0         0.42261293        0.59820345        3.60811051

@aug-cc-pVTZ.gbs/N

