%Chk=CH400133
%Mem=2GB
%NProcShared=16
#T M05/Gen test Massage SCF=(tight,maxcyc=40)

M05 opt

0 1
  6         0.00000000        0.00000000        0.00000000
  1         0.55289486        0.00000000       -0.95931915
  1        -0.65547242       -0.89107636        0.04821613
  1         0.71988808       -0.02543015        0.84089263
  1        -0.61731052        0.91650651        0.07021039
  6-Bq        0.00000000       0.00000000       3.43916933
  1-Bq       -0.12310016      -1.09757334       3.51768729
  1-Bq       -0.99566760       0.47871513       3.36525168
  1-Bq        0.52532743       0.37769252       4.33770448
  1-Bq        0.59344032       0.24116569       2.53603388

@aug-cc-pVTZ.gbs/N

