%Chk=CH400197
%Mem=2GB
%NProcShared=16
#T M05/Gen test Massage Symmetry=None SCF=(tight,maxcyc=60)

M05 opt

0 1
  6         0.00000000        0.00000000        0.00000000
  1         0.70266861        0.00000000        0.85571186
  1         0.28438702        0.79965924       -0.71109429
  1         0.04167747       -0.98097745       -0.51179311
  1        -1.02873310        0.18131821        0.36717554
  0        -0.46496612        0.00000000       -0.56623709
  0        -0.18818306       -0.52914625        0.47054152
  0        -0.02757859        0.64912717        0.33866101
  0         0.68072778       -0.11998092       -0.24296544
  6         0.00000000        0.00000000        3.23936516
  1        -0.74720306        0.65943227        3.72188214
  1        -0.47726086       -0.55035730        2.40550973
  1         0.83460738        0.61290360        2.84723552
  1         0.38985654       -0.72197857        3.98283324
  0         0.49443522       -0.43635600        2.92007659
  0         0.31581051        0.36417950        3.79113952
  0        -0.55227195       -0.40556730        3.49884309
  0        -0.25797379        0.47774381        2.74740142

@aug-cc-pVTZ.gbs/N

