%Chk=CH400172
%Mem=2GB
%NProcShared=16
#T M05/Gen test Massage Symmetry=None SCF=(tight,maxcyc=60)

M05 opt

0 1
  6         0.00000000        0.00000000        0.00000000
  1         1.10716755        0.00000000       -0.01288294
  1        -0.37133009        1.02545576       -0.19115545
  1        -0.37825157       -0.68200380       -0.78599143
  1        -0.35758589       -0.34345196        0.99002982
  6-Bq        0.00000000       0.00000000       3.50691691
  1-Bq        0.28218046       1.03808078       3.24471767
  1-Bq        0.34519264      -0.22809480       4.53395184
  1-Bq       -1.10079063      -0.10752841       3.45511357
  1-Bq        0.47341753      -0.70245757       2.79388454

@aug-cc-pVTZ.gbs/N

