%Chk=CH400109
%Mem=2GB
%NProcShared=16
#T M05/Gen test Massage Symmetry=None SCF=(tight,maxcyc=60)

M05 opt

0 1
  6         0.00000000        0.00000000        0.00000000
  1         0.94404913        0.00000000        0.57858206
  1         0.22282005        0.17801042       -1.06988292
  1        -0.50287852       -0.97982404        0.11421032
  1        -0.66399066        0.80181362        0.37709054
  0        -0.62469116        0.00000000       -0.38285623
  0        -0.14744330       -0.11779211        0.70795722
  0         0.33276209        0.64836394       -0.07557465
  0         0.43937236       -0.53057183       -0.24952634
  6         0.00000000        0.00000000        3.62498195
  1        -1.05284200        0.01584578        3.28255153
  1         0.11523031       -0.75218121        4.42930238
  1         0.66029448       -0.26330886        2.77606169
  1         0.27731721        0.99964430        4.01201218
  0         0.69668100       -0.01048538        3.85157317
  0        -0.07624959        0.49772934        3.09275132
  0        -0.43692655        0.17423534        4.18672493
  0        -0.18350486       -0.66147930        3.36887836

@aug-cc-pVTZ.gbs/N

