%Chk=CH400033
%Mem=2GB
%NProcShared=16
#T M05/Gen test Massage SCF=(tight,maxcyc=40)

M05 opt

0 1
  6         0.00000000        0.00000000        0.00000000
  1         0.51765985        0.00000000       -0.97878202
  1        -0.68337271       -0.86939102        0.05609765
  1         0.74841920       -0.06574770        0.81334612
  1        -0.58270633        0.93513872        0.10933825
  0        -0.34254311        0.00000000        0.64767442
  0         0.45219775        0.57528879       -0.03712064
  0        -0.49523996        0.04350622       -0.53820306
  0         0.38558533       -0.61879501       -0.07235073
  6         0.00000000        0.00000000        4.01141736
  1        -0.95537421        0.55963778        4.01860277
  1         0.38398252       -0.08800408        5.04621138
  1        -0.16774723       -1.01121662        3.59274354
  1         0.73913892        0.53958292        3.38811176
  0         0.63218513       -0.37032053        4.00666267
  0        -0.25408686        0.05823359        3.32667898
  0         0.11100080        0.66913687        4.28845997
  0        -0.48909907       -0.35704993        4.42386783

@aug-cc-pVTZ.gbs/N

