%Chk=CH400143
%Mem=2GB
%NProcShared=16
#T M05/Gen test Massage Symmetry=None SCF=(tight,maxcyc=60)

M05 opt

0 1
  6         0.00000000        0.00000000        0.00000000
  1         1.10720435        0.00000000        0.00919129
  1        -0.37757241        0.20050177        1.02138341
  1        -0.36337458        0.78697696       -0.68892099
  1        -0.36625736       -0.98747873       -0.34165370
  0        -0.73265336        0.00000000       -0.00608201
  0         0.24984520       -0.13267496       -0.67586438
  0         0.24045029       -0.52075420        0.45586913
  0         0.24235787        0.65342916        0.22607727
  6         0.00000000        0.00000000        3.41398235
  1        -1.04892582        0.31154026        3.58334364
  1         0.42185484       -0.40299454        4.35505612
  1         0.03084127       -0.78222336        2.63093612
  1         0.59622972        0.87367765        3.08659351
  0         0.69408960       -0.20615076        3.30191350
  0        -0.27914753        0.26666740        2.79126003
  0        -0.02040812        0.51760867        3.93213552
  0        -0.39453395       -0.57812531        3.63062035

@aug-cc-pVTZ.gbs/N

