%Chk=CH400125
%Mem=2GB
%NProcShared=16
#T M05/Gen test Massage SCF=(tight,maxcyc=40)

M05 opt

0 1
  6         0.00000000        0.00000000        0.00000000
  1         1.09673844        0.00000000        0.15215372
  1        -0.28683811       -0.87259579       -0.61829317
  1        -0.50879468       -0.05994439        0.98159085
  1        -0.30110565        0.93254018       -0.51545140
  0        -0.72572791        0.00000000       -0.10068235
  0         0.18980498        0.57740943        0.40913366
  0         0.33667691        0.03966608       -0.64953306
  0         0.19924602       -0.61707552        0.34108175
  6         0.00000000        0.00000000        2.82353078
  1        -0.02774518        0.69471875        1.96179879
  1        -0.07182269       -1.04309621        2.45914396
  1         0.95082854        0.13368769        3.37492777
  1        -0.85126067        0.21468977        3.49825260
  0         0.01835939       -0.45970559        3.39375148
  0         0.04752613        0.69023206        3.06465088
  0        -0.62917719       -0.08846311        2.45866330
  0         0.56329167       -0.14206337        2.37705746

@aug-cc-pVTZ.gbs/N

