%Chk=CH400165
%Mem=2GB
%NProcShared=16
#T M05/Gen test Massage SCF=(tight,maxcyc=40)

M05 opt

0 1
  6         0.00000000        0.00000000        0.00000000
  1         1.10491784        0.00000000        0.07171145
  1        -0.37033017       -1.04345026        0.00728517
  1        -0.42581973        0.54879241        0.86225889
  1        -0.30876793        0.49465785       -0.94125551
  0        -0.73114034        0.00000000       -0.04745252
  0         0.24505291        0.69046634       -0.00482070
  0         0.28177116       -0.36314399       -0.57056936
  0         0.20431627       -0.32732235        0.62284258
  6         0.00000000        0.00000000        3.27426464
  1         0.61539161       -0.91916064        3.32348700
  1        -0.18211389        0.37755648        4.29909223
  1         0.53466363        0.77108961        2.68643679
  1        -0.96794134       -0.22948545        2.78804253
  0        -0.40721365        0.60822208        3.24169348
  0         0.12050744       -0.24983466        2.59612119
  0        -0.35379477       -0.51024131        3.66323894
  0         0.64050098        0.15185389        3.59600494

@aug-cc-pVTZ.gbs/N

