%Chk=CH400019
%Mem=2GB
%NProcShared=16
#T M05/Gen test Massage SCF=(tight,maxcyc=40)

M05 opt

0 1
  6         0.00000000        0.00000000        0.00000000
  1         0.60821860        0.00000000        0.92523300
  1         0.63580123        0.28768090       -0.85964089
  1        -0.41382463       -1.01289381       -0.16965040
  1        -0.83019519        0.72521291        0.10405830
  0        -0.40246717        0.00000000       -0.61224024
  0        -0.42071900       -0.19036267        0.56883699
  0         0.27383383        0.67024669        0.11226016
  0         0.54935234       -0.47988402       -0.06885690
  6         0.00000000        0.00000000        2.49035220
  1         0.41318316        0.78035372        1.82228506
  1         0.22774774       -1.00049341        2.07426344
  1         0.45627852        0.09460675        3.49476518
  1        -1.09720942        0.12553294        2.57009514
  0        -0.27340936       -0.51637150        2.93242204
  0        -0.15070402        0.66204116        2.76568424
  0        -0.30192619       -0.06260268        1.82571740
  0         0.72603956       -0.08306699        2.43758514

@aug-cc-pVTZ.gbs/N

