%Chk=CH400084
%Mem=2GB
%NProcShared=16
#T M05/Gen test Massage SCF=(tight,maxcyc=40)

M05 opt

0 1
  6         0.00000000        0.00000000        0.00000000
  1         1.05837631        0.00000000        0.32530839
  1        -0.65741308       -0.12145012        0.88263461
  1        -0.23138322        0.95864564       -0.50343450
  1        -0.16958000       -0.83719552       -0.70450851
  0        -0.70034313        0.00000000       -0.21526134
  0         0.43501988        0.08036533       -0.58405227
  0         0.15310967       -0.63434988        0.33312999
  0         0.11221357        0.55398456        0.46618361
  6         0.00000000        0.00000000        4.23749463
  1         0.96053753        0.35779235        3.81876055
  1         0.18520318       -0.87417841        4.89132782
  1        -0.46953964        0.81006140        4.82852679
  1        -0.67620108       -0.29367534        3.41136337
  0        -0.63560178       -0.23675645        4.51457712
  0        -0.12255166        0.57845668        3.80484362
  0         0.31070127       -0.53602951        3.84639999
  0         0.44745217        0.19432928        4.78415781

@aug-cc-pVTZ.gbs/N

