%Chk=CH400252
%Mem=2GB
%NProcShared=16
#T M05/Gen test Massage Symmetry=None SCF=(tight,maxcyc=60)

M05 opt

0 1
  6         0.00000000        0.00000000        0.00000000
  1         0.51417196        0.00000000       -0.98061876
  1        -0.45048489       -0.99521691        0.18053427
  1         0.73147504        0.22469557        0.80027628
  1        -0.79516211        0.77052134       -0.00019179
  0        -0.34023513        0.00000000        0.64888982
  0         0.29809246        0.65854963       -0.11946217
  0        -0.48402776       -0.14868435       -0.52955456
  0         0.52617043       -0.50986528        0.00012691
  6         0.00000000        0.00000000        3.50472917
  1        -0.58541647       -0.36335735        4.37147305
  1         1.07205163        0.04803901        3.77746259
  1        -0.13324052       -0.69398594        2.65231118
  1        -0.35339464        1.00930429        3.21766986
  0         0.38737866        0.24043889        2.93119203
  0        -0.70939229       -0.03178812        3.32425747
  0         0.08816721        0.45922068        4.06878666
  0         0.23384642       -0.66787145        3.69468052

@aug-cc-pVTZ.gbs/N

