%Chk=CH400300
%Mem=2GB
%NProcShared=16
#T M05/Gen test Massage SCF=(tight,maxcyc=40)

M05 opt

0 1
  6         0.00000000        0.00000000        0.00000000
  1         1.05967014        0.00000000        0.32106875
  1        -0.63742336        0.35941140        0.83096382
  1        -0.12086704        0.66908259       -0.87390252
  1        -0.30137974       -1.02849399       -0.27813005
  0        -0.70119928        0.00000000       -0.21245590
  0         0.42179239       -0.23782779       -0.54986095
  0         0.07997949       -0.44274176        0.57827411
  0         0.19942740        0.68056956        0.18404274
  6         0.00000000        0.00000000        4.01291651
  1         0.52193904        0.96141517        3.84190054
  1        -0.07569048       -0.55397190        3.05721151
  1         0.56963345       -0.60399588        4.74550962
  1        -1.01588201        0.19655261        4.40704436
  0        -0.34537472       -0.63618252        4.12608029
  0         0.05008550        0.36657133        4.64532053
  0        -0.37693481        0.39967293        3.52814890
  0         0.67222403       -0.13006174        3.75211633

@aug-cc-pVTZ.gbs/N

