%Chk=CH400026
%Mem=2GB
%NProcShared=16
#T M05/Gen test Massage Symmetry=None SCF=(tight,maxcyc=60)

M05 opt

0 1
  6-Bq        0.00000000       0.00000000       0.00000000
  1-Bq        1.10471228       0.00000000      -0.07481134
  1-Bq       -0.36076426       1.03804216       0.13529069
  1-Bq       -0.43271339      -0.42323319      -0.92715627
  1-Bq       -0.31123463      -0.61480897       0.86667692
  6         0.00000000        0.00000000        2.91515960
  1        -0.08377373        0.66982011        3.79283206
  1        -0.70810799        0.32965201        2.13036754
  1         1.03338680        0.03777964        2.51934351
  1        -0.24150508       -1.03725176        3.21809530

@aug-cc-pVTZ.gbs/N

