%Chk=CH400095
%Mem=2GB
%NProcShared=16
#T M05/Gen test Massage SCF=(tight,maxcyc=20)

M05 opt

0 1
  6-Bq        0.00000000       0.00000000       0.00000000
  1-Bq        0.80708042       0.00000000      -0.75802846
  1-Bq        0.39005531       0.40366976       0.95440743
  1-Bq       -0.83789923       0.63189890      -0.35300796
  1-Bq       -0.35923650      -1.03556866       0.15662899
  6         0.00000000        0.00000000        3.36834524
  1         0.97230855        0.41431709        3.03827951
  1        -0.65132282        0.82306236        3.72095393
  1        -0.48723947       -0.51868053        2.52007985
  1         0.16625374       -0.71869892        4.19406765

@aug-cc-pVTZ.gbs/N

