%Chk=CH400021
%Mem=2GB
%NProcShared=16
#T M05/Gen test Massage SCF=(tight,maxcyc=40)

M05 opt

0 1
  6         0.00000000        0.00000000        0.00000000
  1         1.05761844        0.00000000        0.32776392
  1        -0.37678286       -1.04070071       -0.03102686
  1        -0.60721107        0.59127634        0.71251173
  1        -0.07362452        0.44942437       -1.00924879
  0        -0.69984164        0.00000000       -0.21688619
  0         0.24932274        0.68864692        0.02053093
  0         0.40180047       -0.39125623       -0.47147946
  0         0.04871842       -0.29739070        0.66783473
  6         0.00000000        0.00000000        2.55053616
  1        -0.85337743       -0.16170898        1.86381705
  1         0.70113076       -0.85366912        2.47536537
  1         0.52513393        0.93445060        2.27300709
  1        -0.37288727        0.08092750        3.58995512
  0         0.56469236        0.10700521        3.00494826
  0        -0.46394851        0.56488538        2.60027777
  0        -0.34748883       -0.61833967        2.73418121
  0         0.24674498       -0.05355091        1.86273738

@aug-cc-pVTZ.gbs/N

