%Chk=CH400047
%Mem=2GB
%NProcShared=16
#T M05/Gen test Massage Symmetry=None SCF=(tight,maxcyc=60)

M05 opt

0 1
  6         0.00000000        0.00000000        0.00000000
  1         1.07412658        0.00000000        0.26877135
  1        -0.60105531        0.29581840        0.88159511
  1        -0.17434915        0.71909286       -0.82370734
  1        -0.29872212       -1.01491126       -0.32665912
  6         0.00000000        0.00000000        2.69302050
  1        -0.25290959        0.84012186        2.01758141
  1        -0.82505763       -0.73840761        2.68854135
  1         0.93202172       -0.48584248        2.34476980
  1         0.14594550        0.38412823        3.72118944

@aug-cc-pVTZ.gbs/N

