%Chk=CH400055
%Mem=2GB
%NProcShared=16
#T M05/Gen test Massage SCF=(tight,maxcyc=40)

M05 opt

0 1
  6         0.00000000        0.00000000        0.00000000
  1         0.27585259        0.00000000       -1.07232985
  1         0.91882895        0.02189845        0.61746237
  1        -0.61570741        0.89291156        0.22270899
  1        -0.57897413       -0.91481001        0.23215848
  0        -0.18253571        0.00000000        0.70957639
  0        -0.60800259       -0.01449053       -0.40858391
  0         0.40742262       -0.59085268       -0.14736981
  0         0.38311568        0.60534320       -0.15362267
  6         0.00000000        0.00000000        3.81493359
  1        -0.78678008        0.72247825        4.10646100
  1         0.11110452       -0.76465434        4.60799442
  1        -0.28466206       -0.49227705        2.86487213
  1         0.96033762        0.53445314        3.68040680
  0         0.52062392       -0.47807446        3.62202562
  0        -0.07351949        0.50598299        3.29015360
  0         0.18836506        0.32574695        4.44360319
  0        -0.63546949       -0.35365548        3.90395193

@aug-cc-pVTZ.gbs/N

