%Chk=CH400092
%Mem=2GB
%NProcShared=16
#T M05/Gen test Massage SCF=(tight,maxcyc=40)

M05 opt

0 1
  6         0.00000000        0.00000000        0.00000000
  1         0.94214977        0.00000000        0.58166981
  1         0.07404012       -0.73757077       -0.82249218
  1        -0.84365334       -0.27099270        0.66392617
  1        -0.17253656        1.00856347       -0.42310380
  0        -0.62343432        0.00000000       -0.38489944
  0        -0.04899343        0.48806139        0.54425514
  0         0.55825779        0.17931984       -0.43932969
  0         0.11416997       -0.66738124        0.27997399
  6         0.00000000        0.00000000        3.37993854
  1         1.04854624       -0.35431200        3.41155725
  1        -0.09468656        0.80595789        2.62664425
  1        -0.66575388       -0.84127027        3.10603699
  1        -0.28810580        0.38962439        4.37551568
  0        -0.69383843        0.23445345        3.35901598
  0         0.06265549       -0.53331416        3.87840443
  0         0.44053911        0.55668088        3.56118322
  0         0.19064383       -0.25782017        2.72115055

@aug-cc-pVTZ.gbs/N

