%Chk=CH400306
%Mem=2GB
%NProcShared=16
#T M05/Gen test Massage Symmetry=None SCF=(tight,maxcyc=60)

M05 opt

0 1
  6         0.00000000        0.00000000        0.00000000
  1         0.50847589        0.00000000        0.98358438
  1        -0.84401418        0.71637397        0.02084100
  1         0.71888043        0.29940728       -0.78711636
  1        -0.38334214       -1.01578125       -0.21730901
  6-Bq        0.00000000       0.00000000       4.99337103
  1-Bq        1.02740569       0.40809170       5.05569817
  1-Bq        0.01541062      -0.95452737       4.43245574
  1-Bq       -0.38890329      -0.17827448       6.01462438
  1-Bq       -0.65391302       0.72471016       4.47070584

@aug-cc-pVTZ.gbs/N

