%Chk=CH400028
%Mem=2GB
%NProcShared=16
#T M05/Gen test Massage Symmetry=None SCF=(tight,maxcyc=60)

M05 opt

0 1
  6         0.00000000        0.00000000        0.00000000
  1         1.06747601        0.00000000       -0.29407641
  1        -0.59170834        0.54861707       -0.75821271
  1        -0.36407164       -1.04345641        0.06809199
  1        -0.11169603        0.49483934        0.98419712
  0        -0.70636453        0.00000000        0.19459467
  0         0.39154209       -0.36302796        0.50172047
  0         0.24091154        0.69047041       -0.04505747
  0         0.07391090       -0.32744245       -0.65125767
  6         0.00000000        0.00000000        3.15614798
  1         0.70817414       -0.61861231        3.74077961
  1         0.43102938        1.00815114        3.00177532
  1        -0.18329963       -0.47737142        2.17405647
  1        -0.95590389        0.08783259        3.70798051
  0        -0.46860922        0.40934484        2.76928865
  0        -0.28521846       -0.66710840        3.25829863
  0         0.12129205        0.31588367        3.80601234
  0         0.63253562       -0.05812011        2.79099229

@aug-cc-pVTZ.gbs/N

