%Chk=CH400116
%Mem=2GB
%NProcShared=16
#T M05/Gen test Massage Symmetry=None SCF=(tight,maxcyc=60)

M05 opt

0 1
  6         0.00000000        0.00000000        0.00000000
  1         0.68091155        0.00000000        0.87312394
  1        -1.04986488       -0.02793486        0.35069836
  1         0.16539965        0.91770340       -0.59703382
  1         0.20355367       -0.88976854       -0.62678848
  0        -0.45056916        0.00000000       -0.57775892
  0         0.69471099        0.01848491       -0.23206225
  0        -0.10944738       -0.60725780        0.39506604
  0        -0.13469445        0.58877289        0.41475513
  6         0.00000000        0.00000000        3.57472058
  1         0.91280254       -0.05395198        4.19911362
  1        -0.56469126       -0.94824677        3.66381486
  1        -0.63338804        0.84048412        3.91880194
  1         0.28527677        0.16171463        2.51715191
  0        -0.60401483        0.03570081        3.16155055
  0         0.37366449        0.62746880        3.51576560
  0         0.41912216       -0.55616067        3.34703690
  0        -0.18877182       -0.10700894        4.27452929

@aug-cc-pVTZ.gbs/N

