%Chk=CH400267
%Mem=2GB
%NProcShared=16
#T M05/Gen test Massage Symmetry=None SCF=(tight,maxcyc=60)

M05 opt

0 1
  6         0.00000000        0.00000000        0.00000000
  1         0.00000002        0.00000000       -1.10724250
  1         1.02868713       -0.17767408        0.36908085
  1        -0.36047330        0.97970623        0.36908083
  1        -0.66821384       -0.80203215        0.36908082
  0        -0.00000001        0.00000000        0.73267860
  0        -0.68069736        0.11756955       -0.24422621
  0         0.23853047       -0.64828598       -0.24422620
  0         0.44216690        0.53071644       -0.24422619
  6         0.00000000        0.00000000        4.08785158
  1        -0.00000010        0.00000024        2.98060908
  1         0.36047353       -0.97970624        4.45693217
  1         0.66821370        0.80203221        4.45693253
  1        -1.02868713        0.17767379        4.45693255
  0         0.00000007       -0.00000016        4.82053019
  0        -0.23853062        0.64828599        3.84362554
  0        -0.44216681       -0.53071647        3.84362531
  0         0.68069737       -0.11756935        3.84362529

@aug-cc-pVTZ.gbs/N

