%Chk=CH400152
%Mem=2GB
%NProcShared=16
#T M05/Gen test Massage SCF=(tight,maxcyc=40)

M05 opt

0 1
  6         0.00000000        0.00000000        0.00000000
  1         0.69070410        0.00000000       -0.86539806
  1        -0.31235745       -1.03861687        0.22292101
  1         0.51383291        0.42831271        0.88233209
  1        -0.89217955        0.61030416       -0.23985504
  0        -0.45704903        0.00000000        0.57264659
  0         0.20669151        0.68726802       -0.14751010
  0        -0.34001077       -0.28342080       -0.58385209
  0         0.59036830       -0.40384721        0.15871560
  6         0.00000000        0.00000000        4.43773029
  1        -0.25556813       -0.89645157        5.03526311
  1         0.55250873        0.72064780        5.07128124
  1         0.63254831       -0.29695899        3.57884499
  1        -0.92948891        0.47276276        4.06553181
  0         0.16911318        0.59319515        4.04233405
  0        -0.36560313       -0.47686322        4.01850033
  0        -0.41856649        0.19650212        5.00606729
  0         0.61505644       -0.31283405        4.68401948

@aug-cc-pVTZ.gbs/N

