%Chk=CH400013
%Mem=2GB
%NProcShared=16
#T M05/Gen test Massage SCF=(tight,maxcyc=20)

M05 opt

0 1
  6-Bq        0.00000000       0.00000000       0.00000000
  1-Bq        0.96894556       0.00000000       0.53584556
  1-Bq       -0.65776674      -0.78179513       0.42676135
  1-Bq       -0.48324719       0.98999793       0.11118545
  1-Bq        0.17206837      -0.20820280      -1.07379236
  6         0.00000000        0.00000000        2.40209012
  1         0.13802700        0.41161517        3.42067122
  1        -0.80234970       -0.76287043        2.41788953
  1        -0.28068819        0.81654864        1.70894625
  1         0.94501089       -0.46529338        2.06085348

@aug-cc-pVTZ.gbs/N

