%Chk=CH400047
%Mem=2GB
%NProcShared=16
#T M05/Gen test Massage Symmetry=None SCF=(tight,maxcyc=60)

M05 opt

0 1
  6         0.00000000        0.00000000        0.00000000
  1         1.07412658        0.00000000        0.26877135
  1        -0.60105531        0.29581840        0.88159511
  1        -0.17434915        0.71909286       -0.82370734
  1        -0.29872212       -1.01491126       -0.32665912
  0        -0.71076532        0.00000000       -0.17784994
  0         0.39772712       -0.19574737       -0.58336442
  0         0.11536939       -0.47583430        0.54505923
  0         0.19766881        0.67158167        0.21615513
  6         0.00000000        0.00000000        2.69302050
  1        -0.25290959        0.84012186        2.01758141
  1        -0.82505763       -0.73840761        2.68854135
  1         0.93202172       -0.48584248        2.34476980
  1         0.14594550        0.38412823        3.72118944
  0         0.16735399       -0.55592096        3.13996845
  0         0.54595274        0.48861515        2.69598442
  0        -0.61673245        0.32148909        2.92346309
  0        -0.09657428       -0.25418329        2.01266603

@aug-cc-pVTZ.gbs/N

