%Chk=CH400196
%Mem=2GB
%NProcShared=16
#T M05/Gen test Massage SCF=(tight,maxcyc=40)

M05 opt

0 1
  6         0.00000000        0.00000000        0.00000000
  1         0.14171821        0.00000000       -1.09813565
  1        -0.95493965        0.50211884        0.24890336
  1        -0.02466042       -1.04366996        0.36895911
  1         0.83788186        0.54155112        0.48027318
  0        -0.09377702        0.00000000        0.72665247
  0         0.63189758       -0.33225940       -0.16470300
  0         0.01631816        0.69061172       -0.24414566
  0        -0.55443872       -0.35835232       -0.31780381
  6         0.00000000        0.00000000        3.13315712
  1         0.89863137       -0.14882164        3.76268054
  1        -0.72578054        0.63999838        3.67133056
  1         0.29134005        0.49003206        2.18395983
  1        -0.46419089       -0.98120880        2.91465757
  0        -0.59463756        0.09847746        2.71659225
  0         0.48025963       -0.42349631        2.77703987
  0        -0.19278399       -0.32426140        3.76125490
  0         0.30716192        0.64928026        3.27774149

@aug-cc-pVTZ.gbs/N

