%Chk=CH400149
%Mem=2GB
%NProcShared=16
#T M05/Gen test Massage Symmetry=None SCF=(tight,maxcyc=60)

M05 opt

0 1
  6         0.00000000        0.00000000        0.00000000
  1         0.71103547        0.00000000       -0.84877236
  1         0.13980595        0.92093810        0.59859275
  1        -1.03679835       -0.03475936       -0.38707483
  1         0.18595693       -0.88617874        0.63725444
  0        -0.47050260        0.00000000        0.56164512
  0        -0.09251165       -0.60939825       -0.39609760
  0         0.68606468        0.02300078        0.25613309
  0        -0.12305043        0.58639747       -0.42168061
  6         0.00000000        0.00000000        2.73716056
  1        -0.65322454        0.43797742        3.51655740
  1         0.41168869       -0.96222118        3.09858660
  1        -0.58961517       -0.17350316        1.81616297
  1         0.83115102        0.69774693        2.51733527
  0         0.43224826       -0.28981608        2.22142223
  0        -0.27242044        0.63671587        2.49799965
  0         0.39015701        0.11480959        3.34659817
  0        -0.54998482       -0.46170938        2.88262218

@aug-cc-pVTZ.gbs/N

