%Chk=CH400207
%Mem=2GB
%NProcShared=16
#T M05/Gen test Massage Symmetry=None SCF=(tight,maxcyc=60)

M05 opt

0 1
  6         0.00000000        0.00000000        0.00000000
  1         0.89235169        0.00000000        0.65551081
  1         0.30914645       -0.19979379       -1.04426858
  1        -0.70318439       -0.78745073        0.33382484
  1        -0.49831375        0.98724452        0.05493293
  6         0.00000000        0.00000000        3.03963578
  1         0.31760190        0.91145958        2.49708953
  1         0.74292391       -0.23985137        3.82482451
  1        -0.98823864        0.17450556        3.50752268
  1        -0.07228717       -0.84611377        2.32910638

@aug-cc-pVTZ.gbs/N

