%Chk=CH400302
%Mem=2GB
%NProcShared=16
#T M05/Gen test Massage Symmetry=None SCF=(tight,maxcyc=60)

M05 opt

0 1
  6         0.00000000        0.00000000        0.00000000
  1         0.61496010        0.00000000        0.92076600
  1         0.52229195       -0.56999434       -0.79265599
  1        -0.97912087       -0.47240220        0.21010580
  1        -0.15813118        1.04239654       -0.33821581
  0        -0.40692812        0.00000000       -0.60928437
  0        -0.34560824        0.37717362        0.52451210
  0         0.64789864        0.31259547       -0.13903009
  0         0.10463772       -0.68976908        0.22380236
  6         0.00000000        0.00000000        3.59555315
  1        -0.50808327       -0.33758585        2.67150059
  1         0.87385041        0.62547792        3.32881585
  1        -0.70537376        0.59362437        4.20877736
  1         0.33960661       -0.88151643        4.17311880
  0         0.33620615        0.22338551        4.20701228
  0        -0.57823964       -0.41388791        3.77205713
  0         0.46675616       -0.39280995        3.18977369
  0        -0.22472268        0.58331235        3.21336948

@aug-cc-pVTZ.gbs/N

