%Chk=CH400274
%Mem=2GB
%NProcShared=16
#T M05/Gen test Massage SCF=(tight,maxcyc=40)

M05 opt

0 1
  6         0.00000000        0.00000000        0.00000000
  1         0.81479257        0.00000000        0.74973263
  1        -0.07112895        1.00105574       -0.46777562
  1         0.21518773       -0.75692506       -0.77893815
  1        -0.95885135       -0.24413068        0.49698114
  0        -0.53916020        0.00000000       -0.49610908
  0         0.04706707       -0.66241327        0.30953399
  0        -0.14239288        0.50086842        0.51543480
  0         0.63448601        0.16154485       -0.32885971
  6         0.00000000        0.00000000        3.37267578
  1         0.73861792       -0.82209061        3.44047366
  1         0.52221350        0.94654308        3.13322807
  1        -0.73418624       -0.22824874        2.57589537
  1        -0.52664518        0.10379627        4.34110603
  0        -0.48875431        0.54398942        3.32781293
  0        -0.34555633       -0.62634144        3.53112185
  0         0.48582180        0.15103554        3.89991707
  0         0.34848884       -0.06868352        2.73185128

@aug-cc-pVTZ.gbs/N

