%Chk=CH400102
%Mem=2GB
%NProcShared=16
#T M05/Gen test Massage Symmetry=None SCF=(tight,maxcyc=60)

M05 opt

0 1
  6         0.00000000        0.00000000        0.00000000
  1         0.96249292        0.00000000        0.54735121
  1        -0.78756615        0.44533201        0.63828279
  1         0.10318708        0.59500356       -0.92806742
  1        -0.27811385       -1.04033557       -0.25756657
  0        -0.63689568        0.00000000       -0.36219032
  0         0.52114407       -0.29468272       -0.42236108
  0        -0.06828041       -0.39372258        0.61411583
  0         0.18403202        0.68840531        0.17043558
  6         0.00000000        0.00000000        2.76855727
  1        -0.00319339        1.10712284        2.75259538
  1         0.57905838       -0.35484231        3.64306530
  1        -1.04076677       -0.37109525        2.83982299
  1         0.46490178       -0.38118528        1.83874543
  0         0.00211311       -0.73259942        2.77911949
  0        -0.38317142        0.23480436        2.18988249
  0         0.68869064        0.24555917        2.72139971
  0        -0.30763233        0.25223589        3.38382741

@aug-cc-pVTZ.gbs/N

