%Chk=CH400052
%Mem=2GB
%NProcShared=16
#T M05/Gen test Massage Symmetry=None SCF=(tight,maxcyc=60)

M05 opt

0 1
  6         0.00000000        0.00000000        0.00000000
  1         0.45765176        0.00000000       -1.00823649
  1        -1.03903924       -0.37681082       -0.06630999
  1         0.58784232       -0.65470441        0.67215288
  1        -0.00645484        1.03151523        0.40239360
  0        -0.30283488        0.00000000        0.66716488
  0         0.68754751        0.24934125        0.04387829
  0        -0.38898389        0.43322751       -0.44477342
  0         0.00427126       -0.68256876       -0.26626975
  6         0.00000000        0.00000000        2.85016867
  1         0.21745618        1.08567883        2.85066577
  1         0.23587272       -0.42411133        3.84539708
  1        -1.07193697       -0.16160452        2.62473337
  1         0.61860808       -0.49996298        2.07987844
  0        -0.14389394       -0.71840961        2.84983973
  0        -0.15608044        0.28064069        2.19161143
  0         0.70931642        0.10693608        2.99934251
  0        -0.40934204        0.33083284        3.35988101

@aug-cc-pVTZ.gbs/N

