%Chk=CH400259
%Mem=2GB
%NProcShared=16
#T M05/Gen test Massage Symmetry=None SCF=(tight,maxcyc=60)

M05 opt

0 1
  6         0.00000000        0.00000000        0.00000000
  1         0.98145980        0.00000000       -0.51256475
  1        -0.16191353       -0.98099507        0.48725623
  1        -0.01649170        0.79962611        0.76571017
  1        -0.80305457        0.18136896       -0.74040166
  0        -0.64944634        0.00000000        0.33917161
  0         0.10714056        0.64913883       -0.32242460
  0         0.01091280       -0.52912432       -0.50668165
  0         0.53139299       -0.12001450        0.48993464
  6         0.00000000        0.00000000        4.01456389
  1        -0.74788570        0.80157721        4.16989228
  1        -0.25116436       -0.56633309        3.09686609
  1         1.00607259        0.44970450        3.90700110
  1        -0.00702253       -0.68494862        4.88449609
  0         0.49488694       -0.53041540        3.91178082
  0         0.16619914        0.37475091        4.62181798
  0        -0.66573299       -0.29757606        4.08573976
  0         0.00464691        0.45324055        3.43891699

@aug-cc-pVTZ.gbs/N

