%Chk=CH400017
%Mem=2GB
%NProcShared=16
#T M05/Gen test Massage Symmetry=None SCF=(tight,maxcyc=60)

M05 opt

0 1
  6         0.00000000        0.00000000        0.00000000
  1         0.65023301        0.00000000        0.89620477
  1        -0.99804416       -0.39749237        0.26812987
  1        -0.10472189        1.03470302       -0.38001176
  1         0.45253305       -0.63721065       -0.78432288
  0        -0.43026872        0.00000000       -0.59303184
  0         0.66042046        0.26302653       -0.17742547
  0         0.06929601       -0.68467817        0.25145936
  0        -0.29944776        0.42165164        0.51899795
  6         0.00000000        0.00000000        2.77978855
  1         0.30384410       -1.05649431        2.64755958
  1         0.81752323        0.66455516        2.43918884
  1        -0.91086228        0.19957608        2.18272468
  1        -0.21050506        0.19236307        3.84968108
  0        -0.20105810        0.69909778        2.86728639
  0        -0.54096711       -0.43974590        3.00516837
  0         0.60273093       -0.13206242        3.17487446
  0         0.13929428       -0.12728946        2.07182496

@aug-cc-pVTZ.gbs/N

