%Chk=CH400017
%Mem=2GB
%NProcShared=16
#T M05/Gen test Massage Symmetry=None SCF=(tight,maxcyc=60)

M05 opt

0 1
  6-Bq        0.00000000       0.00000000       0.00000000
  1-Bq        0.65023301       0.00000000       0.89620477
  1-Bq       -0.99804416      -0.39749237       0.26812987
  1-Bq       -0.10472189       1.03470302      -0.38001176
  1-Bq        0.45253305      -0.63721065      -0.78432288
  6         0.00000000        0.00000000        2.77978855
  1         0.30384410       -1.05649431        2.64755958
  1         0.81752323        0.66455516        2.43918884
  1        -0.91086228        0.19957608        2.18272468
  1        -0.21050506        0.19236307        3.84968108

@aug-cc-pVTZ.gbs/N

