%Chk=CH400182
%Mem=2GB
%NProcShared=16
#T M05/Gen test Massage SCF=(tight,maxcyc=40)

M05 opt

0 1
  6         0.00000000        0.00000000        0.00000000
  1         1.09825324        0.00000000       -0.14080401
  1        -0.45735861        0.75801995       -0.66499234
  1        -0.40392753       -1.00060332       -0.24823679
  1        -0.23696711        0.24258337        1.05403314
  0        -0.72673028        0.00000000        0.09317208
  0         0.30264090       -0.50159292        0.44003519
  0         0.26728477        0.66211389        0.16426192
  0         0.15680461       -0.16052097       -0.69746919
  6         0.00000000        0.00000000        2.78559569
  1         0.20405098       -1.02614553        3.14805190
  1         0.78465401        0.29940662        2.06402815
  1        -0.98859962        0.02576448        2.28760680
  1        -0.00010536        0.70097443        3.64269591
  0        -0.13502353        0.67901555        2.54575310
  0        -0.51921707       -0.19812176        3.26306752
  0         0.65417087       -0.01704873        3.11512224
  0         0.00006972       -0.46384506        2.21843990

@aug-cc-pVTZ.gbs/N

