%Chk=CH400299
%Mem=2GB
%NProcShared=16
#T M05/Gen test Massage Symmetry=None SCF=(tight,maxcyc=60)

M05 opt

0 1
  6         0.00000000        0.00000000        0.00000000
  1         0.58501138        0.00000000        0.94007853
  1        -1.07392282        0.13457484        0.23359227
  1         0.34340574        0.82922871       -0.64841205
  1         0.14550570       -0.96380356       -0.52525875
  0        -0.38711061        0.00000000       -0.62206375
  0         0.71063048       -0.08905015       -0.15457143
  0        -0.22723662       -0.54871280        0.42906377
  0        -0.09628325        0.63776295        0.34757142
  6         0.00000000        0.00000000        3.17602037
  1         1.03286498        0.21987060        2.84310475
  1        -0.72037079        0.44662159        2.46357315
  1        -0.15002208       -1.09637390        3.21401513
  1        -0.16247211        0.42988172        4.18338847
  0        -0.68346191       -0.14549160        3.39631553
  0         0.47667992       -0.29553605        3.64745715
  0         0.09927181        0.72548669        3.15087869
  0         0.10751018       -0.28445904        2.50943013

@aug-cc-pVTZ.gbs/N

