%Chk=CH400308
%Mem=2GB
%NProcShared=16
#T M05/Gen test Massage Symmetry=None SCF=(tight,maxcyc=60)

M05 opt

0 1
  6         0.00000000        0.00000000        0.00000000
  1         1.00620947        0.00000000        0.46209140
  1        -0.69514128        0.58884771        0.62930353
  1         0.05728900        0.45207983       -1.00912227
  1        -0.36835720       -1.04092754       -0.08227266
  0        -0.66582356        0.00000000       -0.30577266
  0         0.45998518       -0.38964917       -0.41641938
  0        -0.03790897       -0.29914785        0.66775101
  0         0.24374736        0.68879702        0.05444102
  6         0.00000000        0.00000000        3.70308079
  1        -0.72980166        0.82744296        3.60973386
  1        -0.49708429       -0.88166333        4.15203840
  1         0.38725707       -0.26545258        2.70030821
  1         0.83962888        0.31967295        4.35024268
  0         0.48292046       -0.54753114        3.76484982
  0         0.32892797        0.58340956        3.40599895
  0        -0.25625369        0.17565386        4.36663011
  0        -0.55559474       -0.21153228        3.27484427

@aug-cc-pVTZ.gbs/N

