%Chk=CH400244
%Mem=2GB
%NProcShared=16
#T M05/Gen test Massage SCF=(tight,maxcyc=40)

M05 opt

0 1
  6         0.00000000        0.00000000        0.00000000
  1         0.30139145        0.00000000       -1.06543379
  1        -0.98618838       -0.49242203        0.10458955
  1         0.75274600       -0.55094918        0.59650182
  1        -0.06794907        1.04337121        0.36434241
  6-Bq        0.00000000       0.00000000       4.33119874
  1-Bq       -0.91067157       0.62980050       4.33501547
  1-Bq        0.37683941      -0.11025152       5.36648740
  1-Bq       -0.24339211      -0.99831301       3.91874587
  1-Bq        0.77722427       0.47876403       3.70454621

@aug-cc-pVTZ.gbs/N

