%Chk=CH400267
%Mem=2GB
%NProcShared=16
#T M05/Gen test Massage SCF=(tight,maxcyc=40)

M05 opt

0 1
  6         0.00000000        0.00000000        0.00000000
  1         0.00000002        0.00000000       -1.10724250
  1         1.02868713       -0.17767408        0.36908085
  1        -0.36047330        0.97970623        0.36908083
  1        -0.66821384       -0.80203215        0.36908082
  6-Bq        0.00000000       0.00000000       4.08785158
  1-Bq       -0.00000010       0.00000024       2.98060908
  1-Bq        0.36047353      -0.97970624       4.45693217
  1-Bq        0.66821370       0.80203221       4.45693253
  1-Bq       -1.02868713       0.17767379       4.45693255

@aug-cc-pVTZ.gbs/N

