%Chk=CH400112
%Mem=2GB
%NProcShared=16
#T M05/Gen test Massage SCF=(tight,maxcyc=40)

M05 opt

0 1
  6         0.00000000        0.00000000        0.00000000
  1         1.09075162        0.00000000        0.19038609
  1        -0.22461857        0.66075173       -0.85961596
  1        -0.33467416       -1.03028967       -0.22909029
  1        -0.53145889        0.36953794        0.89832016
  6-Bq        0.00000000       0.00000000       2.54368316
  1-Bq        0.14822391      -0.00280410       3.64095604
  1-Bq       -0.31934545       1.00859287       2.21696484
  1-Bq        0.95044655      -0.26670062       2.04217734
  1-Bq       -0.77932500      -0.73908814       2.27463444

@aug-cc-pVTZ.gbs/N

