%Chk=CH400242
%Mem=2GB
%NProcShared=16
#T M05/Gen test Massage SCF=(tight,maxcyc=40)

M05 opt

0 1
  6         0.00000000        0.00000000        0.00000000
  1         1.06570536        0.00000000        0.30042975
  1        -0.22038448        0.91801980       -0.57849485
  1        -0.20694419       -0.88942099       -0.62617119
  1        -0.63837669       -0.02859881        0.90423629
  6-Bq        0.00000000       0.00000000       4.59628071
  1-Bq       -0.63893635       0.16948406       3.70801192
  1-Bq        0.89000165      -0.59008916       4.30357300
  1-Bq        0.32323704       0.97491472       5.00985665
  1-Bq       -0.57430233      -0.55430962       5.36368128

@aug-cc-pVTZ.gbs/N

