%Chk=CH400149
%Mem=2GB
%NProcShared=16
#T M05/Gen test Massage SCF=(tight,maxcyc=40)

M05 opt

0 1
  6         0.00000000        0.00000000        0.00000000
  1         0.71103547        0.00000000       -0.84877236
  1         0.13980595        0.92093810        0.59859275
  1        -1.03679835       -0.03475936       -0.38707483
  1         0.18595693       -0.88617874        0.63725444
  6-Bq        0.00000000       0.00000000       2.73716056
  1-Bq       -0.65322454       0.43797742       3.51655740
  1-Bq        0.41168869      -0.96222118       3.09858660
  1-Bq       -0.58961517      -0.17350316       1.81616297
  1-Bq        0.83115102       0.69774693       2.51733527

@aug-cc-pVTZ.gbs/N

