%Chk=CH400239
%Mem=2GB
%NProcShared=16
#T M05/Gen test Massage SCF=(tight,maxcyc=40)

M05 opt

0 1
  6         0.00000000        0.00000000        0.00000000
  1         1.08774980        0.00000000        0.20684854
  1        -0.46213994       -0.89764322        0.45458693
  1        -0.45803084        0.91034242        0.43297850
  1        -0.16757902       -0.01269920       -1.09441398
  6-Bq        0.00000000       0.00000000       3.02539562
  1-Bq        0.55459143      -0.92917003       2.79075257
  1-Bq       -0.52340464      -0.11720397       3.99405282
  1-Bq        0.70988492       0.84730500       3.08961089
  1-Bq       -0.74107171       0.19906900       2.22716619

@aug-cc-pVTZ.gbs/N

