%Chk=CH400077
%Mem=2GB
%NProcShared=16
#T M05/Gen test Massage SCF=(tight,maxcyc=40)

M05 opt

0 1
  6         0.00000000        0.00000000        0.00000000
  1         0.77973168        0.00000000       -0.78613260
  1         0.34526279        0.60269015        0.86229005
  1        -0.93307366        0.43682659       -0.40563781
  1        -0.19192081       -1.03951674        0.32948036
  6-Bq        0.00000000       0.00000000       3.24361619
  1-Bq       -0.70605755       0.84546810       3.13113342
  1-Bq       -0.18912447      -0.51321311       4.20633639
  1-Bq       -0.14388477      -0.71441905       2.41001643
  1-Bq        1.03906679       0.38216405       3.22697850

@aug-cc-pVTZ.gbs/N

