%Chk=CH400310
%Mem=2GB
%NProcShared=16
#T M05/Gen test Massage SCF=(tight,maxcyc=40)

M05 opt

0 1
  6         0.00000000        0.00000000        0.00000000
  1         0.12611048        0.00000000        1.10003732
  1         0.49496477       -0.89308711       -0.42824204
  1        -1.07894075       -0.02155957       -0.24780637
  1         0.45786550        0.91464668       -0.42398891
  6-Bq        0.00000000       0.00000000       3.55926692
  1-Bq        0.39049114       1.03251578       3.64537032
  1-Bq       -1.10271057       0.02922764       3.46355323
  1-Bq        0.43537435      -0.48584216       2.66462032
  1-Bq        0.27684508      -0.57590126       4.46352379

@aug-cc-pVTZ.gbs/N

