%Chk=CH400144
%Mem=2GB
%NProcShared=16
#T M05/Gen test Massage SCF=(tight,maxcyc=40)

M05 opt

0 1
  6         0.00000000        0.00000000        0.00000000
  1         0.98551047        0.00000000        0.50473267
  1        -0.79595476        0.19545368        0.74447285
  1        -0.01761769        0.79034544       -0.77526103
  1        -0.17193802       -0.98579911       -0.47394449
  6-Bq        0.00000000       0.00000000       3.70329172
  1-Bq        0.31864094      -1.05943040       3.65789189
  1-Bq       -1.08565519       0.06806475       3.49663754
  1-Bq        0.20985048       0.40562883       4.71196113
  1-Bq        0.55716378       0.58573681       2.94667632

@aug-cc-pVTZ.gbs/N

