%Chk=CH400103
%Mem=2GB
%NProcShared=16
#T M05/Gen test Massage Symmetry=None SCF=(tight,maxcyc=60)

M05 opt

0 1
  6         0.00000000        0.00000000        0.00000000
  1         0.71215848        0.00000000       -0.84783032
  1        -0.80398591       -0.73635562       -0.19332099
  1         0.53421115       -0.27264921        0.93073456
  1        -0.44238371        1.00900483        0.11041676
  6-Bq        0.00000000       0.00000000       2.50291012
  1-Bq       -0.96007219      -0.27142391       2.98309383
  1-Bq        0.39779426      -0.87469934       1.95277674
  1-Bq       -0.16416476       0.83676487       1.79660959
  1-Bq        0.72644269       0.30935838       3.27916032

@aug-cc-pVTZ.gbs/N

