%Chk=CH400269
%Mem=2GB
%NProcShared=16
#T M05/Gen test Massage SCF=(tight,maxcyc=40)

M05 opt

0 1
  6         0.00000000        0.00000000        0.00000000
  1         0.02528397        0.00000000       -1.10695378
  1         1.00648361       -0.24327421        0.39216623
  1        -0.30525708        1.00080559        0.36220471
  1        -0.72651050       -0.75753137        0.35258285
  6-Bq        0.00000000       0.00000000       4.33783902
  1-Bq       -0.02252677       0.10485358       3.23580262
  1-Bq        0.05628758      -1.07294656       4.60542702
  1-Bq        0.88600450       0.52784907       4.74077492
  1-Bq       -0.91976531       0.44024391       4.76935152

@aug-cc-pVTZ.gbs/N

