%Chk=CH400252
%Mem=2GB
%NProcShared=16
#T M05/Gen test Massage SCF=(tight,maxcyc=40)

M05 opt

0 1
  6         0.00000000        0.00000000        0.00000000
  1         0.51417196        0.00000000       -0.98061876
  1        -0.45048489       -0.99521691        0.18053427
  1         0.73147504        0.22469557        0.80027628
  1        -0.79516211        0.77052134       -0.00019179
  6-Bq        0.00000000       0.00000000       3.50472917
  1-Bq       -0.58541647      -0.36335735       4.37147305
  1-Bq        1.07205163       0.04803901       3.77746259
  1-Bq       -0.13324052      -0.69398594       2.65231118
  1-Bq       -0.35339464       1.00930429       3.21766986

@aug-cc-pVTZ.gbs/N

