%Chk=CH400150
%Mem=2GB
%NProcShared=16
#T M05/Gen test Massage SCF=(tight,maxcyc=40)

M05 opt

0 1
  6         0.00000000        0.00000000        0.00000000
  1         0.82930001        0.00000000       -0.73365349
  1        -0.82199455       -0.64173709       -0.37213495
  1         0.36459155       -0.39219113        0.96914657
  1        -0.37189702        1.03392822        0.13664187
  6-Bq        0.00000000       0.00000000       2.73755166
  1-Bq       -0.10981544      -0.13628807       3.83087324
  1-Bq       -0.99664221      -0.04852067       2.25761832
  1-Bq        0.46057746       0.98589251       2.53292927
  1-Bq        0.64588019      -0.80108377       2.32878581

@aug-cc-pVTZ.gbs/N

