%Chk=CH400161
%Mem=2GB
%NProcShared=16
#T M05/Gen test Massage SCF=(tight,maxcyc=40)

M05 opt

0 1
  6         0.00000000        0.00000000        0.00000000
  1         0.90628788        0.00000000        0.63610394
  1        -0.62885962       -0.87535622        0.25352126
  1        -0.57422680        0.93026068        0.17568325
  1         0.29679854       -0.05490447       -1.06530845
  6-Bq        0.00000000       0.00000000       3.18769560
  1-Bq       -0.26068006       0.09391244       2.11568240
  1-Bq        0.42397507       0.95668381       3.54961712
  1-Bq       -0.91038340      -0.24359948       3.76894195
  1-Bq        0.74708839      -0.80699676       3.31654094

@aug-cc-pVTZ.gbs/N

