%Chk=CH400042
%Mem=2GB
%NProcShared=16
#T M05/Gen test Massage SCF=(tight,maxcyc=40)

M05 opt

0 1
  6         0.00000000        0.00000000        0.00000000
  1         0.50874286        0.00000000        0.98344632
  1         0.50617388       -0.71478668       -0.67738759
  1        -1.05727136       -0.30149509        0.13139230
  1         0.04235462        1.01628178       -0.43745102
  6-Bq        0.00000000       0.00000000       4.72700984
  1-Bq        0.60719675       0.92571714       4.70841310
  1-Bq       -1.07534535       0.26384468       4.72493044
  1-Bq        0.23174216      -0.61140974       3.83344414
  1-Bq        0.23640644      -0.57815208       5.64125167

@aug-cc-pVTZ.gbs/N

