%Chk=CH400041
%Mem=2GB
%NProcShared=16
#T M05/Gen test Massage SCF=(tight,maxcyc=40)

M05 opt

0 1
  6         0.00000000        0.00000000        0.00000000
  1         1.10451393        0.00000000       -0.07768486
  1        -0.30157969        0.43464529        0.97268655
  1        -0.42787656        0.60464851       -0.82298711
  1        -0.37505768       -1.03929380       -0.07201458
  6-Bq        0.00000000       0.00000000       3.52901345
  1-Bq        0.88251153      -0.08995314       2.86639154
  1-Bq       -0.90660320      -0.32431512       2.98231764
  1-Bq        0.14166410      -0.64008691       4.42131720
  1-Bq       -0.11757243       1.05435517       3.84602741

@aug-cc-pVTZ.gbs/N

