%Chk=CH400281
%Mem=2GB
%NProcShared=16
#T M05/Gen test Massage SCF=(tight,maxcyc=40)

M05 opt

0 1
  6         0.00000000        0.00000000        0.00000000
  1         0.79573186        0.00000000        0.76993296
  1        -0.05738262        1.00020428       -0.47147066
  1         0.23314846       -0.75897956       -0.77173686
  1        -0.97149770       -0.24122472        0.47327456
  6-Bq        0.00000000       0.00000000       4.12510106
  1-Bq       -0.11664510      -0.65689558       5.00876846
  1-Bq        1.05152251      -0.02947306       3.77953240
  1-Bq       -0.66535836      -0.35205540       3.31310278
  1-Bq       -0.26951905       1.03842404       4.39900059

@aug-cc-pVTZ.gbs/N

