%Chk=CH400193
%Mem=2GB
%NProcShared=16
#T M05/Gen test Massage SCF=(tight,maxcyc=40)

M05 opt

0 1
  6         0.00000000        0.00000000        0.00000000
  1         1.10575427        0.00000000       -0.05738864
  1        -0.37582720        1.03452391       -0.12041661
  1        -0.41139949       -0.63827512       -0.80581715
  1        -0.31852758       -0.39624879        0.98362241
  6-Bq        0.00000000       0.00000000       4.47644019
  1-Bq        0.37650129       0.68166800       5.26356246
  1-Bq        0.45378614       0.27275457       3.50398503
  1-Bq        0.27125423      -1.04294992       4.73072856
  1-Bq       -1.10154165       0.08852734       4.40748472

@aug-cc-pVTZ.gbs/N

