%Chk=CH400120
%Mem=2GB
%NProcShared=16
#T M05/Gen test Massage Symmetry=None SCF=(tight,maxcyc=60)

M05 opt

0 1
  6         0.00000000        0.00000000        0.00000000
  1         0.64836161        0.00000000        0.89755957
  1        -0.67645636        0.87594581        0.03334191
  1         0.62898123        0.05382296       -0.90965469
  1        -0.60088648       -0.92976877       -0.02124679
  6-Bq        0.00000000       0.00000000       3.62746818
  1-Bq       -0.93437421       0.58317261       3.51415225
  1-Bq       -0.08536489      -0.94758307       3.06108922
  1-Bq        0.85219374       0.58855882       3.23586852
  1-Bq        0.16754535      -0.22414837       4.69876273

@aug-cc-pVTZ.gbs/N

