%Chk=CH400043
%Mem=2GB
%NProcShared=16
#T M05/Gen test Massage SCF=(tight,maxcyc=40)

M05 opt

0 1
  6         0.00000000        0.00000000        0.00000000
  1         1.10229018        0.00000000       -0.10460552
  1        -0.45091710       -0.55572573       -0.84488380
  1        -0.28021884       -0.48744796        0.95386469
  1        -0.37115424        1.04317369       -0.00437537
  6-Bq        0.00000000       0.00000000       4.91121084
  1-Bq       -0.71584801      -0.81884658       5.11866654
  1-Bq       -0.12685316       0.80096576       5.66509948
  1-Bq        1.03414958      -0.39257685       4.96024165
  1-Bq       -0.19144841       0.41045767       3.90083568

@aug-cc-pVTZ.gbs/N

