%Chk=CH400123
%Mem=2GB
%NProcShared=16
#T M05/Gen test Massage SCF=(tight,maxcyc=40)

M05 opt

0 1
  6         0.00000000        0.00000000        0.00000000
  1         1.03705287        0.00000000       -0.38795271
  1        -0.13755269        0.85843117        0.68568298
  1        -0.71022875        0.08522189       -0.84516171
  1        -0.18927143       -0.94365306        0.54743144
  6-Bq        0.00000000       0.00000000       4.02475955
  1-Bq        0.47042037      -0.80128070       4.62695542
  1-Bq       -1.07860568       0.05942550       4.26779112
  1-Bq        0.48439478       0.96837685       4.25626318
  1-Bq        0.12379054      -0.22652166       2.94802848

@aug-cc-pVTZ.gbs/N

