%Chk=CH400182
%Mem=2GB
%NProcShared=16
#T M05/Gen test Massage SCF=(tight,maxcyc=40)

M05 opt

0 1
  6         0.00000000        0.00000000        0.00000000
  1         1.09825324        0.00000000       -0.14080401
  1        -0.45735861        0.75801995       -0.66499234
  1        -0.40392753       -1.00060332       -0.24823679
  1        -0.23696711        0.24258337        1.05403314
  6-Bq        0.00000000       0.00000000       2.78559569
  1-Bq        0.20405098      -1.02614553       3.14805190
  1-Bq        0.78465401       0.29940662       2.06402815
  1-Bq       -0.98859962       0.02576448       2.28760680
  1-Bq       -0.00010536       0.70097443       3.64269591

@aug-cc-pVTZ.gbs/N

