%Chk=CH400206
%Mem=2GB
%NProcShared=16
#T M05/Gen test Massage SCF=(tight,maxcyc=40)

M05 opt

0 1
  6         0.00000000        0.00000000        0.00000000
  1         1.00678060        0.00000000        0.46084573
  1        -0.72650890       -0.45565398        0.70039290
  1        -0.30437573        1.04122023       -0.22181481
  1         0.02410404       -0.58556624       -0.93942383
  6-Bq        0.00000000       0.00000000       2.41136649
  1-Bq       -0.21622022      -0.06117501       3.49556776
  1-Bq        0.43261787       0.99184217       2.17668193
  1-Bq        0.72165796      -0.79250631       2.13364451
  1-Bq       -0.93805561      -0.13816086       1.83957177

@aug-cc-pVTZ.gbs/N

