%Chk=CH400009
%Mem=2GB
%NProcShared=16
#T M05/Gen test Massage SCF=(tight,maxcyc=40)

M05 opt

0 1
  6         0.00000000        0.00000000        0.00000000
  1         0.91672574        0.00000000        0.62096688
  1        -0.62160832       -0.87875716        0.25956677
  1        -0.57435948        0.92739842        0.18981389
  1         0.27924206       -0.04864126       -1.07034754
  6-Bq        0.00000000       0.00000000       3.26714319
  1-Bq        1.00164228       0.43796881       3.09141036
  1-Bq       -0.41127266       0.38927752       4.21861771
  1-Bq       -0.67462344       0.27526218       2.43341667
  1-Bq        0.08425382      -1.10250851       3.32512802

@aug-cc-pVTZ.gbs/N

