%Chk=CH400194
%Mem=2GB
%NProcShared=16
#T M05/Gen test Massage SCF=(tight,maxcyc=40)

M05 opt

0 1
  6         0.00000000        0.00000000        0.00000000
  1         0.82993740        0.00000000       -0.73293238
  1        -0.08849312       -1.00447569        0.45736584
  1         0.20510380        0.74839920        0.78982088
  1        -0.94654808        0.25607649       -0.51425434
  6-Bq        0.00000000       0.00000000       3.16148139
  1-Bq        0.09207683      -1.02136720       2.74396869
  1-Bq       -1.01463404       0.13620203       3.58332582
  1-Bq        0.75379498       0.14162802       3.96005549
  1-Bq        0.16876223       0.74353715       2.35857556

@aug-cc-pVTZ.gbs/N

