%Chk=CH400284
%Mem=2GB
%NProcShared=16
#T M05/Gen test Massage SCF=(tight,maxcyc=40)

M05 opt

0 1
  6         0.00000000        0.00000000        0.00000000
  1         1.10076337        0.00000000        0.11960756
  1        -0.39191342        1.01795743        0.19013808
  1        -0.25919446       -0.30861412       -1.03129119
  1        -0.44965549       -0.70934331        0.72154554
  6-Bq        0.00000000       0.00000000       4.30356437
  1-Bq        0.78214920      -0.03841622       3.52077910
  1-Bq       -0.70448989       0.82477154       4.08123159
  1-Bq       -0.55047850      -0.96051649       4.32273320
  1-Bq        0.47281919       0.17416117       5.28951358

@aug-cc-pVTZ.gbs/N

