%Chk=BLIND00151
%Mem=2GB
%NProcShared=16
#T M05/Gen test Massage SCF=(tight,maxcyc=20)

M05 opt

0 1
  6-Bq        0.69566170       0.39043734      -0.63617796
  6-Bq        0.65315079      -1.03224163      -0.63818856
 16-Bq       -0.67654702       1.44370773      -0.32604679
 16-Bq       -0.80043626      -1.98214365      -0.29270460
  6-Bq       -1.58730837       0.45422270       0.82961546
  6-Bq       -1.63549212      -0.90416851       0.83939724
  6-Bq        1.96109204       0.81743156      -0.98498335
  7-Bq        1.75642054      -1.66793072      -0.94892198
 16-Bq        2.95401725      -0.56738049      -1.30313690
  6-Bq       -2.33485279       1.22969223       1.76284319
  7-Bq       -2.94526220       1.90424794       2.48642316
  6-Bq       -2.43952483      -1.60445487       1.78653628
  7-Bq       -3.10279452      -2.21515866       2.52004861
  6-Bq        2.43598397       2.14502151      -1.11594526
  7-Bq        2.84025036       3.22805667      -1.23718653
  6         0.59325324       -0.31974959        4.58216662
  6         1.11621814       -0.61535361        5.87249706
 16        -1.11473958       -0.21380318        4.18210098
 16         0.11791580       -0.89599947        7.30749485
  6        -1.76471032        0.41272943        5.70824547
  6        -1.27444420        0.13927618        6.94618994
  6         1.62918664       -0.19961320        3.67789207
  7         2.41798864       -0.71629277        5.98679876
 16         3.12848410       -0.48737321        4.49894496
  6        -2.92107478        1.22679232        5.53157486
  7        -3.87423919        1.86365635        5.33902659
  6        -1.90253536        0.65815156        8.11675039
  7        -2.39849300        1.03483566        9.09810722
  6         1.55782043        0.07642316        2.29085233
  7         1.51750893        0.29293832        1.14954077

@aug-cc-pVTZ.gbs/N

