%Chk=CH400187
%Mem=2GB
%NProcShared=16
#T M05/Gen test Massage SCF=(tight,maxcyc=40)

M05 opt

0 1
  6-Bq        0.00000000       0.00000000       0.00000000
  1-Bq        0.71020666       0.00000000       0.84946598
  1-Bq       -0.89642778       0.59192124       0.26838861
  1-Bq        0.48638688       0.44871777      -0.88773088
  1-Bq       -0.30016576      -1.04063901      -0.23012371
  6         0.00000000        0.00000000        2.61129637
  1         0.24946245        0.25385761        3.65977659
  1        -0.60707545        0.81352303        2.16900050
  1         0.93376753       -0.12214821        2.02893568
  1        -0.57615453       -0.94523243        2.58747273

@aug-cc-pVTZ.gbs/N

