%Chk=CH400190
%Mem=2GB
%NProcShared=16
#T M05/Gen test Massage SCF=(tight,maxcyc=40)

M05 opt

0 1
  6-Bq        0.00000000       0.00000000       0.00000000
  1-Bq        1.10613400       0.00000000       0.04953305
  1-Bq       -0.36378951       1.03810441      -0.12642145
  1-Bq       -0.33095392      -0.61433282      -0.85968055
  1-Bq       -0.41139057      -0.42377159       0.93656895
  6         0.00000000        0.00000000        3.17788927
  1        -0.42322613        1.01256217        3.03097616
  1         0.81702682        0.04612413        3.92376172
  1        -0.79291011       -0.68236280        3.54073982
  1         0.39910942       -0.37632349        2.21607939

@aug-cc-pVTZ.gbs/N

