%Chk=CH400174
%Mem=2GB
%NProcShared=16
#T M05/Gen test Massage SCF=(tight,maxcyc=40)

M05 opt

0 1
  6-Bq        0.00000000       0.00000000       0.00000000
  1-Bq        0.93652307       0.00000000       0.59068647
  1-Bq       -0.70194729      -0.74561741       0.42108269
  1-Bq       -0.46176545       1.00555271       0.04027858
  1-Bq        0.22718968      -0.25993531      -1.05204774
  6         0.00000000        0.00000000        3.56053849
  1         0.02702347       -0.97806650        3.04223201
  1         1.02651107        0.40909990        3.63052598
  1        -0.63907306        0.70210133        2.99077951
  1        -0.41446148       -0.13313473        4.57861648

@aug-cc-pVTZ.gbs/N

