%Chk=CH400069
%Mem=2GB
%NProcShared=16
#T M05/Gen test Massage SCF=(tight,maxcyc=40)

M05 opt

0 1
  6-Bq        0.00000000       0.00000000       0.00000000
  1-Bq        0.87892184       0.00000000       0.67341098
  1-Bq       -0.67634297       0.83212270       0.27589485
  1-Bq        0.33699439       0.12983501      -1.04669175
  1-Bq       -0.53957327      -0.96195771       0.09738592
  6         0.00000000        0.00000000        3.71523752
  1        -0.44609302       -0.33703437        4.67095443
  1        -0.21921020        1.07478571        3.56434514
  1         1.09628819       -0.15236595        3.74561467
  1        -0.43098497       -0.58538540        2.88003584

@aug-cc-pVTZ.gbs/N

