%Chk=CH400262
%Mem=2GB
%NProcShared=16
#T M05/Gen test Massage Symmetry=None SCF=(tight,maxcyc=60)

M05 opt

0 1
  6-Bq        0.00000000       0.00000000       0.00000000
  1-Bq        1.08628742       0.00000000       0.21439587
  1-Bq       -0.16105972      -0.10867426      -1.09006221
  1-Bq       -0.48083732      -0.84481047       0.53016668
  1-Bq       -0.44439039       0.95348473       0.34549966
  6         0.00000000        0.00000000        3.40663856
  1        -0.03050074        0.17341393        4.49979146
  1        -1.03307907       -0.08602521        3.01762281
  1         0.51100206        0.84887407        2.91239605
  1         0.55257775       -0.93626279        3.19674391

@aug-cc-pVTZ.gbs/N

