%Chk=CH400296
%Mem=2GB
%NProcShared=16
#T M05/Gen test Massage SCF=(tight,maxcyc=40)

M05 opt

0 1
  6-Bq        0.00000000       0.00000000       0.00000000
  1-Bq        0.21023639       0.00000000       1.08710009
  1-Bq        0.73886106      -0.64102057      -0.51880914
  1-Bq       -1.01958999      -0.39303260      -0.17873889
  1-Bq        0.07049254       1.03405317      -0.38955206
  6         0.00000000        0.00000000        3.74892533
  1        -0.64406791        0.79924817        4.16409379
  1         1.06067051        0.22900255        3.96920213
  1        -0.27164042       -0.96951441        4.20961964
  1        -0.14496217       -0.05873631        2.65278575

@aug-cc-pVTZ.gbs/N

