%Chk=CH400237
%Mem=2GB
%NProcShared=16
#T M05/Gen test Massage SCF=(tight,maxcyc=40)

M05 opt

0 1
  6-Bq        0.00000000       0.00000000       0.00000000
  1-Bq        0.93817032       0.00000000      -0.58806667
  1-Bq        0.21132547      -0.34084534       1.03206199
  1-Bq       -0.41797470       1.02493558       0.02810996
  1-Bq       -0.73152109      -0.68409024      -0.47210528
  6         0.00000000        0.00000000        3.57641457
  1         0.30407118       -0.50654286        4.51286585
  1         0.49312030        0.98947563        3.51512591
  1         0.30185550       -0.61722443        2.70813857
  1        -1.09904699        0.13429166        3.56952794

@aug-cc-pVTZ.gbs/N

