%Chk=CH400178
%Mem=2GB
%NProcShared=16
#T M05/Gen test Massage SCF=(tight,maxcyc=40)

M05 opt

0 1
  6-Bq        0.00000000       0.00000000       0.00000000
  1-Bq        1.00237210       0.00000000       0.47035744
  1-Bq       -0.64142355      -0.75263691       0.49809584
  1-Bq       -0.45736055       1.00279849       0.10584178
  1-Bq        0.09641199      -0.25016157      -1.07429506
  6         0.00000000        0.00000000        2.81414141
  1        -0.88631371       -0.07852110        2.15515097
  1         0.90409713        0.17025066        2.19801720
  1        -0.13448272        0.84724494        3.51419596
  1         0.11669930       -0.93897450        3.38920151

@aug-cc-pVTZ.gbs/N

