%Chk=CH400257
%Mem=2GB
%NProcShared=16
#T M05/Gen test Massage SCF=(tight,maxcyc=40)

M05 opt

0 1
  6-Bq        0.00000000       0.00000000       0.00000000
  1-Bq        0.64422640       0.00000000      -0.90053223
  1-Bq       -0.99534192       0.41059314      -0.25825123
  1-Bq       -0.11364261      -1.03649085       0.37250240
  1-Bq        0.46475812       0.62589771       0.78628106
  6         0.00000000        0.00000000        3.25190421
  1         0.16063186        1.09536343        3.23286945
  1        -0.59958960       -0.30046541        2.37088276
  1         0.97875343       -0.51706508        3.22599312
  1        -0.53979568       -0.27783294        4.17787151

@aug-cc-pVTZ.gbs/N

