%Chk=CH400167
%Mem=2GB
%NProcShared=16
#T M05/Gen test Massage SCF=(tight,maxcyc=40)

M05 opt

0 1
  6-Bq        0.00000000       0.00000000       0.00000000
  1-Bq        0.49829827       0.00000000      -0.98877944
  1-Bq       -0.83866123      -0.72287339      -0.00934633
  1-Bq        0.72923007      -0.29080138       0.78079704
  1-Bq       -0.38886711       1.01367478       0.21732873
  6         0.00000000        0.00000000        3.57395997
  1         0.09209150       -0.97337945        3.05430860
  1        -0.45647888        0.74168221        2.89020528
  1        -0.63981758       -0.11893433        4.46976913
  1         1.00420496        0.35063157        3.88155689

@aug-cc-pVTZ.gbs/N

