%Chk=CH400268
%Mem=2GB
%NProcShared=16
#T M05/Gen test Massage SCF=(tight,maxcyc=40)

M05 opt

0 1
  6-Bq        0.00000000       0.00000000       0.00000000
  1-Bq        0.01711325       0.00000000      -1.10711024
  1-Bq        1.03802073      -0.01195068       0.38517021
  1-Bq       -0.51721863       0.90997582       0.36112998
  1-Bq       -0.53791535      -0.89802513       0.36081005
  6         0.00000000        0.00000000        3.74850806
  1        -0.02526752        0.06868442        2.64368683
  1         0.19553339       -1.04765461        4.04879537
  1         0.80404673        0.65251713        4.14057463
  1        -0.97431260        0.32645306        4.16097541

@aug-cc-pVTZ.gbs/N

