%Chk=CH400048
%Mem=2GB
%NProcShared=16
#T M05/Gen test Massage SCF=(tight,maxcyc=40)

M05 opt

0 1
  6-Bq        0.00000000       0.00000000       0.00000000
  1-Bq        0.97296508       0.00000000      -0.52851198
  1-Bq       -0.60172460       0.86718704      -0.33451472
  1-Bq       -0.54409245      -0.93689656      -0.22841672
  1-Bq        0.17285197       0.06970952       1.09144342
  6         0.00000000        0.00000000        4.16805521
  1         1.07962644       -0.00352902        4.41377914
  1        -0.53053784       -0.71556846        4.82568530
  1        -0.41025564        1.01683356        4.32208693
  1        -0.13883295       -0.29773609        3.11066948

@aug-cc-pVTZ.gbs/N

