%Chk=CH400308
%Mem=2GB
%NProcShared=16
#T M05/Gen test Massage SCF=(tight,maxcyc=40)

M05 opt

0 1
  6-Bq        0.00000000       0.00000000       0.00000000
  1-Bq        1.00620947       0.00000000       0.46209140
  1-Bq       -0.69514128       0.58884771       0.62930353
  1-Bq        0.05728900       0.45207983      -1.00912227
  1-Bq       -0.36835720      -1.04092754      -0.08227266
  6         0.00000000        0.00000000        3.70308079
  1        -0.72980166        0.82744296        3.60973386
  1        -0.49708429       -0.88166333        4.15203840
  1         0.38725707       -0.26545258        2.70030821
  1         0.83962888        0.31967295        4.35024268

@aug-cc-pVTZ.gbs/N

