%Chk=CH400072
%Mem=2GB
%NProcShared=16
#T M05/Gen test Massage SCF=(tight,maxcyc=40)

M05 opt

0 1
  6-Bq        0.00000000       0.00000000       0.00000000
  1-Bq        1.09502283       0.00000000       0.16404558
  1-Bq       -0.34434617      -1.03456135      -0.19259930
  1-Bq       -0.50808042       0.39650781       0.90034538
  1-Bq       -0.24259624       0.63805354      -0.87179166
  6         0.00000000        0.00000000        2.94307794
  1         0.63248062        0.07890956        2.03768990
  1         0.46208173        0.57685626        3.76751913
  1        -1.00666299        0.40718297        2.72670417
  1        -0.08789936       -1.06294878        3.24039855

@aug-cc-pVTZ.gbs/N

