%Chk=CH400170
%Mem=2GB
%NProcShared=16
#T M05/Gen test Massage Symmetry=None SCF=(tight,maxcyc=60)

M05 opt

0 1
  6-Bq        0.00000000       0.00000000       0.00000000
  1-Bq        0.19958541       0.00000000      -1.08910588
  1-Bq        0.45372558      -0.90000630       0.45837507
  1-Bq        0.44000580       0.90805933       0.45586084
  1-Bq       -1.09331679      -0.00805302       0.17486997
  6         0.00000000        0.00000000        4.51875710
  1        -0.01472937        0.24774502        3.43968741
  1        -0.88657245       -0.61449776        4.76849249
  1         0.92088904       -0.56775913        4.75455131
  1        -0.01958723        0.93451187        5.11229722

@aug-cc-pVTZ.gbs/N

