%Chk=CH400177
%Mem=2GB
%NProcShared=16
#T M05/Gen test Massage SCF=(tight,maxcyc=40)

M05 opt

0 1
  6-Bq        0.00000000       0.00000000       0.00000000
  1-Bq        0.78350487       0.00000000      -0.78237209
  1-Bq       -0.47588635      -0.99871117       0.04576174
  1-Bq        0.45733135       0.23619029       0.98033063
  1-Bq       -0.76494986       0.76252088      -0.24372029
  6         0.00000000        0.00000000        3.30971923
  1         0.71106565        0.08132107        2.46487695
  1         0.55950579        0.00847931        4.26516014
  1        -0.70165954        0.85619106        3.28529143
  1        -0.56891189       -0.94599144        3.22354840

@aug-cc-pVTZ.gbs/N

