%Chk=CH400038
%Mem=2GB
%NProcShared=16
#T M05/Gen test Massage SCF=(tight,maxcyc=40)

M05 opt

0 1
  6-Bq        0.00000000       0.00000000       0.00000000
  1-Bq        0.42799444       0.00000000      -1.02117908
  1-Bq        0.36169582      -0.88921390       0.55177960
  1-Bq        0.31538000       0.91820799       0.53236781
  1-Bq       -1.10507026      -0.02899409      -0.06296833
  6         0.00000000        0.00000000        3.30972461
  1         0.48369567        0.64938312        2.55452529
  1        -0.06095845        0.53879292        4.27511169
  1        -1.01995291       -0.26486882        2.96983268
  1         0.59721568       -0.92330721        3.43942880

@aug-cc-pVTZ.gbs/N

