%Chk=CH400283
%Mem=2GB
%NProcShared=16
#T M05/Gen test Massage SCF=(tight,maxcyc=40)

M05 opt

0 1
  6-Bq        0.00000000       0.00000000       0.00000000
  1-Bq        1.10086735       0.00000000      -0.11864665
  1-Bq       -0.37921517       1.03763005      -0.07420030
  1-Bq       -0.45711714      -0.61789518      -0.79701658
  1-Bq       -0.26453504      -0.41973487       0.98986353
  6         0.00000000        0.00000000        4.36518130
  1        -0.42348748       -1.02177344        4.41639998
  1         0.00424474        0.34546239        3.31321948
  1        -0.61724199        0.68642582        4.97658777
  1         1.03648473       -0.01011478        4.75451798

@aug-cc-pVTZ.gbs/N

