%Chk=CH400102
%Mem=2GB
%NProcShared=16
#T M05/Gen test Massage SCF=(tight,maxcyc=40)

M05 opt

0 1
  6-Bq        0.00000000       0.00000000       0.00000000
  1-Bq        0.96249292       0.00000000       0.54735121
  1-Bq       -0.78756615       0.44533201       0.63828279
  1-Bq        0.10318708       0.59500356      -0.92806742
  1-Bq       -0.27811385      -1.04033557      -0.25756657
  6         0.00000000        0.00000000        2.76855727
  1        -0.00319339        1.10712284        2.75259538
  1         0.57905838       -0.35484231        3.64306530
  1        -1.04076677       -0.37109525        2.83982299
  1         0.46490178       -0.38118528        1.83874543

@aug-cc-pVTZ.gbs/N

