%Chk=CH400196
%Mem=2GB
%NProcShared=16
#T M05/Gen test Massage SCF=(tight,maxcyc=40)

M05 opt

0 1
  6-Bq        0.00000000       0.00000000       0.00000000
  1-Bq        0.14171821       0.00000000      -1.09813565
  1-Bq       -0.95493965       0.50211884       0.24890336
  1-Bq       -0.02466042      -1.04366996       0.36895911
  1-Bq        0.83788186       0.54155112       0.48027318
  6         0.00000000        0.00000000        3.13315712
  1         0.89863137       -0.14882164        3.76268054
  1        -0.72578054        0.63999838        3.67133056
  1         0.29134005        0.49003206        2.18395983
  1        -0.46419089       -0.98120880        2.91465757

@aug-cc-pVTZ.gbs/N

