%Chk=CH400030
%Mem=2GB
%NProcShared=16
#T M05/Gen test Massage SCF=(tight,maxcyc=40)

M05 opt

0 1
  6-Bq        0.00000000       0.00000000       0.00000000
  1-Bq        1.08887745       0.00000000      -0.20082793
  1-Bq       -0.17660948      -0.18487059       1.07731978
  1-Bq       -0.42709511       0.98220556      -0.28079880
  1-Bq       -0.48517286      -0.79733497      -0.59569304
  6         0.00000000        0.00000000        3.03416375
  1         0.72498706        0.43280966        3.75044268
  1        -0.75879214        0.76223430        2.77106810
  1         0.53299594       -0.32160752        2.11848373
  1        -0.49919086       -0.87343644        3.49666048

@aug-cc-pVTZ.gbs/N

