%Chk=CH400049
%Mem=2GB
%NProcShared=16
#T M05/Gen test Massage SCF=(tight,maxcyc=40)

M05 opt

0 1
  6-Bq        0.00000000       0.00000000       0.00000000
  1-Bq        0.79331213       0.00000000       0.77242594
  1-Bq       -0.92059357      -0.45286331       0.41642317
  1-Bq       -0.20995662       1.04099294      -0.31342922
  1-Bq        0.33723806      -0.58812963      -0.87541989
  6         0.00000000        0.00000000        2.55096706
  1         0.66166158       -0.29796601        3.38727213
  1        -0.09151625       -0.84001314        1.83543324
  1        -1.00129324        0.25855130        2.94662984
  1         0.43114790        0.87942785        2.03453304

@aug-cc-pVTZ.gbs/N

