%Chk=CH400175
%Mem=2GB
%NProcShared=16
#T M05/Gen test Massage SCF=(tight,maxcyc=40)

M05 opt

0 1
  6-Bq        0.00000000       0.00000000       0.00000000
  1-Bq        0.97489288       0.00000000      -0.52494745
  1-Bq       -0.54028559      -0.93994639      -0.22489601
  1-Bq        0.16862481       0.07665456       1.09163900
  1-Bq       -0.60323210       0.86329184      -0.34179554
  6         0.00000000        0.00000000        3.68096936
  1        -0.40095014       -0.14124265        4.70335649
  1         0.89058293       -0.64299933        3.54168595
  1        -0.77438171       -0.27635959        2.93938706
  1         0.28474892        1.06060157        3.53944793

@aug-cc-pVTZ.gbs/N

