%Chk=CH400140
%Mem=2GB
%NProcShared=16
#T M05/Gen test Massage SCF=(tight,maxcyc=40)

M05 opt

0 1
  6-Bq        0.00000000       0.00000000       0.00000000
  1-Bq        0.63792951       0.00000000      -0.90500381
  1-Bq        0.27875978       0.85340807       0.64805371
  1-Bq       -1.06242545       0.09396378      -0.29733638
  1-Bq        0.14573616      -0.94737185       0.55428649
  6         0.00000000        0.00000000        3.92593624
  1         0.67497614        0.49205212        3.19910897
  1        -0.17170370       -1.04964948        3.61813798
  1         0.46353209        0.01869176        4.93130909
  1        -0.96680453        0.53890560        3.95518891

@aug-cc-pVTZ.gbs/N

