%Chk=CH400074
%Mem=2GB
%NProcShared=16
#T M05/Gen test Massage SCF=(tight,maxcyc=40)

M05 opt

0 1
  6-Bq        0.00000000       0.00000000       0.00000000
  1-Bq        1.06485097       0.00000000       0.30344417
  1-Bq       -0.07341107       0.18545280      -1.08912994
  1-Bq       -0.45170501      -0.98240579       0.23838499
  1-Bq       -0.53973488       0.79695299       0.54730078
  6         0.00000000        0.00000000        3.28062238
  1         0.48132115       -0.94354787        2.95808041
  1         0.71501868        0.59130791        3.88484850
  1        -0.30142787        0.58397034        2.38949622
  1        -0.89491196       -0.23173038        3.89006440

@aug-cc-pVTZ.gbs/N

