%Chk=CH400061
%Mem=2GB
%NProcShared=16
#T M05/Gen test Massage SCF=(tight,maxcyc=40)

M05 opt

0 1
  6-Bq        0.00000000       0.00000000       0.00000000
  1-Bq        0.54918140       0.00000000      -0.96144982
  1-Bq       -1.04526531      -0.32220986      -0.17200927
  1-Bq        0.49034191      -0.69881343       0.70513159
  1-Bq        0.00574201       1.02102328       0.42832749
  6         0.00000000        0.00000000        2.52342700
  1         0.94148608       -0.49948053        2.22324520
  1        -0.80787672       -0.75290477        2.60377353
  1         0.14135556        0.49568003        3.50337897
  1        -0.27496491        0.75670527        1.76331030

@aug-cc-pVTZ.gbs/N

