%Chk=CH400089
%Mem=2GB
%NProcShared=16
#T M05/Gen test Massage SCF=(tight,maxcyc=40)

M05 opt

0 1
  6-Bq        0.00000000       0.00000000       0.00000000
  1-Bq        1.10430062       0.00000000       0.08066040
  1-Bq       -0.40853990       0.88408271       0.52676262
  1-Bq       -0.29210516       0.03871044      -1.06731534
  1-Bq       -0.40365556      -0.92279315       0.45989232
  6         0.00000000        0.00000000        2.78643011
  1        -0.26801578        0.28239959        3.82296471
  1        -0.79152699        0.34529329        2.09343406
  1         0.96277547        0.47313253        2.51221312
  1         0.09676729       -1.10082540        2.71710856

@aug-cc-pVTZ.gbs/N

