%Chk=BLIND1
%Mem=6GB
%NProcShared=16
%Chk=BLIND1
#T M05/Gen test Massage SCF=(tight,maxcyc=60)

M05 opt

0 1
  6        -0.68617648       -0.73849905       -0.15776534
  6        -1.26591708        0.53579698        0.09893900
 16         0.86222014       -1.00614799       -0.94475237
 16        -0.49602283        2.07684620       -0.30973995
  6         1.75565719        0.42220208       -0.39184332
  6         1.21435498        1.64379847       -0.14216707
  6        -1.55657875       -1.73307428        0.24038438
  7        -2.45866377        0.55718342        0.64185518
 16        -3.00030985       -1.00149499        0.86107660
  6         3.15649520        0.19194895       -0.26644000
  7         4.29427109       -0.03724577       -0.20218394
  6         2.03188838        2.74297154        0.25456918
  7         2.66273291        3.67299364        0.55125115
  6        -1.38550466       -3.13626915        0.15704016
  7        -1.26597949       -4.29040470        0.08789701
  6        -0.66599954       -0.67042169        5.97505532
  6         0.58832663       -1.24577937        6.32356078
 16        -1.40472557        0.70840010        6.77608651
 16         1.63440613       -0.63743041        7.61592975
  6         0.04092628        1.62741955        7.23392496
  6         1.24432792        1.09072445        7.56773165
  6        -1.24680558       -1.40345187        4.95985370
  7         0.96723158       -2.31189624        5.66198246
 16        -0.20763934       -2.73205540        4.56013786
  6        -0.17903461        3.03505231        7.26965831
  7        -0.41320695        4.17299200        7.30773190
  6         2.33342142        1.91987981        7.96812978
  7         3.23841250        2.55426425        8.32795427
  6        -2.49368274       -1.18979059        4.32360324
  7        -3.51819570       -1.03493590        3.79683087

@aug-cc-pVTZ.gbs/N

