%Chk=BLIND
%Mem=10GB
%NProcShared=16
#T M05/Gen test Massage SCF=(tight,maxcyc=20)

M05 opt

0 1
 C1        0.25610740        0.14242518        0.97736021
 C2       -0.28620918        1.30101540        0.35335053
 C3       -0.47453549       -1.35164388       -1.16704877
 C4       -0.99075863       -0.25119013       -1.77545593
 C5        1.10515744        0.51954298        1.99824189
 C6       -0.17105617       -2.53301849       -1.90416747
 C7       -1.24909595       -0.23973693       -3.17797958
 C8        1.84280363       -0.30811354        2.87916825
 C9       -0.59900563        0.81877675        5.67936670
 C10      -1.24376125       -0.40872700        5.35788360
 C11       1.49842419       -0.55691814        6.71513836
 C12       0.89508587       -1.73555821        6.40783638
 C13      -1.17999898        1.84860752        4.96718797
 C14       2.89415151       -0.48896431        6.99516904
 C15       1.63959285       -2.95084192        6.35552180
 C16      -0.85648630        3.22696443        4.99248994
 N1        0.08822728        2.46763056        0.81882496
 N2        0.06853194       -3.52642933       -2.45817602
 N3       -1.50273245       -0.19595057       -4.31141569
 N4        2.44798272       -0.97214978        3.61667083
 N5       -2.22319961       -0.36551314        4.48800252
 N6        4.02257799       -0.38793626        7.25524604
 N7        2.20058881       -3.96847261        6.33027435
 N8       -0.61066988        4.36294109        5.00756436
 Si1      -0.16111839       -1.51555319        0.57048556
 Si2      -1.45952250        1.25725001       -0.97179428
 Si3       1.12731330        2.24980102        2.10091989
 Si4       0.68058683        1.00884550        6.86891856
 Si5      -0.83321934       -1.96709579        6.09104824
 Si6      -2.46901449        1.20739222        4.00173029

@aug-cc-pVTZ.gbs/N

