%Chk=C2H4_ArB_2
%Mem=6GB
%NProcShared=16
#T M05/Gen test Massage SCF=(tight,maxcyc=20)

M05 opt

0 1
 Ar        0.00000000000          0.00000000000          3.95000000000
 C1-Bq         0.66807781003          0.00000000000          0.00000000000
 C2-Bq        -0.66807781003          0.00000000000          0.00000000000
 H1-Bq         1.23491924972          0.92453298021          0.00000000000
 H2-Bq         1.23491924972         -0.92453298021          0.00000000000
 H3-Bq        -1.23491924972          0.92453298021          0.00000000000
 H4-Bq        -1.23491924972         -0.92453298021          0.00000000000

@aug-cc-pVTZ.gbs/N

