%Chk=CH4B_2
%Mem=6GB
%NProcShared=16
#T M05/Gen test Massage SCF=(tight,maxcyc=20)

M05 opt

0 1
 C2        0.00000000000         -0.00000006653         -3.41231886707
 H5        0.88909927162          0.51332197373         -3.04744004116
 H6        0.00000000000         -0.00000006653         -4.50188318086
 H7       -0.88909927162          0.51332197373         -3.04744004116
 H8        0.00000000000         -1.02664308871         -3.04744004116
 C1-Bq         0.00000000000          0.00000006653          0.00031886707
 H1-Bq         0.00000000000          1.02664308871         -0.36455995884
 H2-Bq        -0.88909927162         -0.51332197373         -0.36455995884
 H3-Bq         0.00000000000          0.00000006653          1.08988318086
 H4-Bq         0.88909927162         -0.51332197373         -0.36455995884

@aug-cc-pVTZ.gbs/N

