%Chk=H2ODZB_1
%Mem=6GB
%NProcShared=16
#T M05/Gen test Massage SCF=(tight,maxcyc=20)

M05 opt

0 1
 O2       -0.05449454582          0.00000000000          3.06201335291
 H3        0.43243401797         -0.76921945763          3.40143784453
 H4        0.43243401797          0.76921945763          3.40143784453
 O1-Bq         0.05812326679          0.00000000000         -0.03216095052
 H1-Bq        -0.08881193889          0.00000000000          0.92826449222
 H2-Bq        -0.83364653539          0.00000000000         -0.41784684041

@aug-cc-pVDZ.gbs/N

