%Chk=CH400067
%Mem=2GB
%NProcShared=16
#T M05/Gen test Massage Symmetry=None SCF=(tight,maxcyc=60)

M05 opt

0 1
  6         0.00000000        0.00000000        0.00000000
  1         1.02538936        0.00000000       -0.41780692
  1        -0.68668463       -0.50435330       -0.70716188
  1        -0.00453674       -0.53936917        0.96697791
  1        -0.33416799        1.04372247        0.15799089
  6-Bq        0.00000000       0.00000000       2.76074620
  1-Bq       -0.89162196      -0.48477781       2.31804232
  1-Bq       -0.32167600       0.77139774       3.48700788
  1-Bq        0.61492000      -0.76117259       3.27889254
  1-Bq        0.59837795       0.47455266       1.95904204

@aug-cc-pVTZ.gbs/N

