%Chk=CH400007
%Mem=2GB
%NProcShared=16
#T M05/Gen test Massage Symmetry=None SCF=(tight,maxcyc=60)

M05 opt

0 1
  6         0.00000000        0.00000000        0.00000000
  1         0.78694406        0.00000000        0.77891271
  1         0.47043102        0.06930655       -0.99993860
  1        -0.58646436       -0.93671836        0.06785441
  1        -0.67091072        0.86741181        0.15317149
  6-Bq        0.00000000       0.00000000       3.48390059
  1-Bq       -0.00239535       1.06950053       3.19728440
  1-Bq       -0.93050079      -0.48053293       3.12439768
  1-Bq        0.87489812      -0.50240597       3.02769068
  1-Bq        0.05799802      -0.08656163       4.58622961

@aug-cc-pVTZ.gbs/N

