%Chk=CH400221
%Mem=2GB
%NProcShared=16
#T M05/Gen test Massage Symmetry=None SCF=(tight,maxcyc=60)

M05 opt

0 1
  6         0.00000000        0.00000000        0.00000000
  1         1.00544298        0.00000000       -0.46375679
  1         0.10105025        0.07182665        1.10027984
  1        -0.57929998        0.86600389       -0.37474624
  1        -0.52719325       -0.93783055       -0.26177681
  6-Bq        0.00000000       0.00000000       3.63452443
  1-Bq       -0.35535225       1.04569545       3.55558295
  1-Bq        1.06648005      -0.00592161       3.93213356
  1-Bq       -0.59860881      -0.53675512       4.39580453
  1-Bq       -0.11251900      -0.50301872       2.65457668

@aug-cc-pVTZ.gbs/N

