%Chk=CH400285
%Mem=2GB
%NProcShared=16
#T M05/Gen test Massage Symmetry=None SCF=(tight,maxcyc=60)

M05 opt

0 1
  6         0.00000000        0.00000000        0.00000000
  1         0.93026595        0.00000000        0.60049248
  1        -0.74694716       -0.66400592        0.47660469
  1        -0.40352495        1.02960319       -0.05541529
  1         0.22020616       -0.36559726       -1.02168187
  6-Bq        0.00000000       0.00000000       2.97400030
  1-Bq       -0.56791431       0.70600810       2.33759488
  1-Bq       -0.15432295      -1.03335980       2.60747893
  1-Bq        1.07787953       0.24966560       2.93123623
  1-Bq       -0.35564227       0.07768610       4.01969117

@aug-cc-pVTZ.gbs/N

