%Chk=CH400259
%Mem=2GB
%NProcShared=16
#T M05/Gen test Massage Symmetry=None SCF=(tight,maxcyc=60)

M05 opt

0 1
  6         0.00000000        0.00000000        0.00000000
  1         0.98145980        0.00000000       -0.51256475
  1        -0.16191353       -0.98099507        0.48725623
  1        -0.01649170        0.79962611        0.76571017
  1        -0.80305457        0.18136896       -0.74040166
  6-Bq        0.00000000       0.00000000       4.01456389
  1-Bq       -0.74788570       0.80157721       4.16989228
  1-Bq       -0.25116436      -0.56633309       3.09686609
  1-Bq        1.00607259       0.44970450       3.90700110
  1-Bq       -0.00702253      -0.68494862       4.88449609

@aug-cc-pVTZ.gbs/N

