%Chk=CH400116
%Mem=2GB
%NProcShared=16
#T M05/Gen test Massage Symmetry=None SCF=(tight,maxcyc=60)

M05 opt

0 1
  6         0.00000000        0.00000000        0.00000000
  1         0.68091155        0.00000000        0.87312394
  1        -1.04986488       -0.02793486        0.35069836
  1         0.16539965        0.91770340       -0.59703382
  1         0.20355367       -0.88976854       -0.62678848
  6-Bq        0.00000000       0.00000000       3.57472058
  1-Bq        0.91280254      -0.05395198       4.19911362
  1-Bq       -0.56469126      -0.94824677       3.66381486
  1-Bq       -0.63338804       0.84048412       3.91880194
  1-Bq        0.28527677       0.16171463       2.51715191

@aug-cc-pVTZ.gbs/N

