%Chk=CH400027
%Mem=2GB
%NProcShared=16
#T M05/Gen test Massage Symmetry=None SCF=(tight,maxcyc=60)

M05 opt

0 1
  6         0.00000000        0.00000000        0.00000000
  1         1.08472581        0.00000000        0.22216180
  1        -0.50106293       -0.77875773        0.60700765
  1        -0.42715071        0.99143889        0.24612428
  1        -0.15651217       -0.21268116       -1.07529374
  6-Bq        0.00000000       0.00000000       3.78906236
  1-Bq       -0.09733732       0.96615258       3.25702796
  1-Bq       -0.54746318      -0.78486395       3.23205375
  1-Bq        1.06992069      -0.27605323       3.86012775
  1-Bq       -0.42512019       0.09476461       4.80703999

@aug-cc-pVTZ.gbs/N

