%Chk=CH400292
%Mem=2GB
%NProcShared=16
#T M05/Gen test Massage Symmetry=None SCF=(tight,maxcyc=60)

M05 opt

0 1
  6         0.00000000        0.00000000        0.00000000
  1         0.94241145        0.00000000        0.58124575
  1        -0.30151086       -1.04364111       -0.21422040
  1        -0.79490947        0.50099056        0.58575878
  1         0.15400889        0.54265056       -0.95278413
  6-Bq        0.00000000       0.00000000       4.28525708
  1-Bq        1.04280794      -0.03298856       3.91451549
  1-Bq       -0.61453276      -0.73028045       3.72398539
  1-Bq       -0.01685704      -0.25435307       5.36275711
  1-Bq       -0.41141813       1.01762207       4.13977032

@aug-cc-pVTZ.gbs/N

