%Chk=CH400019
%Mem=2GB
%NProcShared=16
#T M05/Gen test Massage Symmetry=None SCF=(tight,maxcyc=60)

M05 opt

0 1
  6         0.00000000        0.00000000        0.00000000
  1         0.60821860        0.00000000        0.92523300
  1         0.63580123        0.28768090       -0.85964089
  1        -0.41382463       -1.01289381       -0.16965040
  1        -0.83019519        0.72521291        0.10405830
  6-Bq        0.00000000       0.00000000       2.49035220
  1-Bq        0.41318316       0.78035372       1.82228506
  1-Bq        0.22774774      -1.00049341       2.07426344
  1-Bq        0.45627852       0.09460675       3.49476518
  1-Bq       -1.09720942       0.12553294       2.57009514

@aug-cc-pVTZ.gbs/N

