%Chk=CH400156
%Mem=2GB
%NProcShared=16
#T M05/Gen test Massage Symmetry=None SCF=(tight,maxcyc=60)

M05 opt

0 1
  6         0.00000000        0.00000000        0.00000000
  1         0.83238677        0.00000000        0.73014945
  1        -0.41505422        1.02285353       -0.08652522
  1         0.37546854       -0.33072821       -0.98773892
  1        -0.79280109       -0.69212532        0.34411470
  6-Bq        0.00000000       0.00000000       4.82403632
  1-Bq       -1.06254443       0.25482725       5.00305687
  1-Bq        0.24021792      -0.95615100       5.32807656
  1-Bq        0.17682144      -0.10186369       3.73576066
  1-Bq        0.64550507       0.80318744       5.22925120

@aug-cc-pVTZ.gbs/N

