%Chk=CH400118
%Mem=2GB
%NProcShared=16
#T M05/Gen test Massage Symmetry=None SCF=(tight,maxcyc=60)

M05 opt

0 1
  6         0.00000000        0.00000000        0.00000000
  1         1.10664302        0.00000000        0.03643047
  1        -0.38798510       -0.86754038        0.56817885
  1        -0.38404861        0.93661633        0.44860058
  1        -0.33460931       -0.06907595       -1.05320989
  6-Bq        0.00000000       0.00000000       4.82675375
  1-Bq        0.19596440       1.08382610       4.71315405
  1-Bq       -0.64745796      -0.16749596       5.70921012
  1-Bq       -0.50743835      -0.38043617       3.91914117
  1-Bq        0.95893191      -0.53589397       4.96550966

@aug-cc-pVTZ.gbs/N

