%Chk=CH400158
%Mem=2GB
%NProcShared=16
#T M05/Gen test Massage Symmetry=None SCF=(tight,maxcyc=60)

M05 opt

0 1
  6         0.00000000        0.00000000        0.00000000
  1         1.10666001        0.00000000        0.03591067
  1        -0.39694275        0.58432541        0.85263487
  1        -0.33844645        0.45700139       -0.95004720
  1        -0.37127080       -1.04132679        0.06150166
  6-Bq        0.00000000       0.00000000       2.95327804
  1-Bq        1.08652763       0.08877781       2.75946842
  1-Bq       -0.52639454      -0.22819601       2.00627153
  1-Bq       -0.17971739      -0.81487394       3.68106102
  1-Bq       -0.38041569       0.95429214       3.36631119

@aug-cc-pVTZ.gbs/N

