%Chk=CH400205
%Mem=2GB
%NProcShared=16
#T M05/Gen test Massage Symmetry=None SCF=(tight,maxcyc=60)

M05 opt

0 1
  6         0.00000000        0.00000000        0.00000000
  1         0.74603730        0.00000000       -0.81817743
  1        -0.03682289       -1.00377542        0.46590229
  1         0.28774310        0.75018220        0.76185073
  1        -0.99695751        0.25359322       -0.40957559
  6-Bq        0.00000000       0.00000000       2.67391489
  1-Bq       -0.17902709      -0.97607827       3.16504263
  1-Bq       -0.77407362       0.17178733       1.90107266
  1-Bq       -0.04747578       0.80771069       3.42978223
  1-Bq        1.00057650      -0.00341975       2.19976203

@aug-cc-pVTZ.gbs/N

