%Chk=CH400266
%Mem=2GB
%NProcShared=16
#T M05/Gen test Massage Symmetry=None SCF=(tight,maxcyc=60)

M05 opt

0 1
  6         0.00000000        0.00000000        0.00000000
  1         0.95504856        0.00000000        0.56023942
  1         0.19947601       -0.20587216       -1.06949144
  1        -0.66747322       -0.78336887        0.40840994
  1        -0.48705135        0.98924103        0.10084208
  6-Bq        0.00000000       0.00000000       3.33656624
  1-Bq       -0.04511789       0.22010444       4.42077303
  1-Bq       -1.02503128      -0.15909335       2.94928580
  1-Bq        0.46683394       0.85239595       2.80602579
  1-Bq        0.60331523      -0.91340704       3.17018034

@aug-cc-pVTZ.gbs/N

