%Chk=CH400256
%Mem=2GB
%NProcShared=16
#T M05/Gen test Massage Symmetry=None SCF=(tight,maxcyc=60)

M05 opt

0 1
  6         0.00000000        0.00000000        0.00000000
  1         0.81746264        0.00000000        0.74682045
  1        -0.05262665        0.99172091       -0.48959783
  1         0.19686870       -0.77815675       -0.76269308
  1        -0.96170469       -0.21356415        0.50547046
  6-Bq        0.00000000       0.00000000       4.85382173
  1-Bq        0.75552769       0.15853776       4.06007767
  1-Bq        0.46985807       0.14792125       5.84545607
  1-Bq       -0.82748826       0.72445907       4.72572730
  1-Bq       -0.39789750      -1.03091808       4.78402590

@aug-cc-pVTZ.gbs/N

