%Chk=CH400275
%Mem=2GB
%NProcShared=16
#T M05/Gen test Massage Symmetry=None SCF=(tight,maxcyc=60)

M05 opt

0 1
  6         0.00000000        0.00000000        0.00000000
  1         1.10648935        0.00000000       -0.04083220
  1        -0.33033657       -0.01457092        1.05671727
  1        -0.38761105        0.91125711       -0.49533233
  1        -0.38854174       -0.89668619       -0.52055274
  6-Bq        0.00000000       0.00000000       3.88439043
  1-Bq       -0.31204523       0.38912369       4.87292292
  1-Bq       -0.53059195      -0.94950219       3.67725827
  1-Bq       -0.24977351       0.74098435       3.10046356
  1-Bq        1.09241068      -0.18060585       3.88691697

@aug-cc-pVTZ.gbs/N

