%Chk=CH400132
%Mem=2GB
%NProcShared=16
#T M05/Gen test Massage Symmetry=None SCF=(tight,maxcyc=60)

M05 opt

0 1
  6         0.00000000        0.00000000        0.00000000
  1         1.01029045        0.00000000        0.45309950
  1         0.06813392        0.33279510       -1.05384588
  1        -0.42127293       -1.02328701        0.03740025
  1        -0.65715145        0.69049190        0.56334613
  6-Bq        0.00000000       0.00000000       2.47642390
  1-Bq       -0.97076079      -0.30889336       2.91023762
  1-Bq        0.75414243       0.08520883       3.28264633
  1-Bq        0.33200415      -0.75618853       1.73890230
  1-Bq       -0.11538579       0.97987305       1.97390935

@aug-cc-pVTZ.gbs/N

