%Chk=CH400243
%Mem=2GB
%NProcShared=16
#T M05/Gen test Massage Symmetry=None SCF=(tight,maxcyc=60)

M05 opt

0 1
  6         0.00000000        0.00000000        0.00000000
  1         1.01865113        0.00000000        0.43397676
  1        -0.59296148        0.81959672        0.45015981
  1         0.06535354        0.15013010       -1.09506887
  1        -0.49104319       -0.96972682        0.21093230
  6-Bq        0.00000000       0.00000000       3.76616936
  1-Bq        0.38855459      -0.82648595       4.39221429
  1-Bq       -0.60895571       0.68158167       4.39115361
  1-Bq        0.84795319       0.56056929       3.32716661
  1-Bq       -0.62755207      -0.41566502       2.95414291

@aug-cc-pVTZ.gbs/N

