%Chk=CH400233
%Mem=2GB
%NProcShared=16
#T M05/Gen test Massage Symmetry=None SCF=(tight,maxcyc=60)

M05 opt

0 1
  6         0.00000000        0.00000000        0.00000000
  1         0.65831566        0.00000000       -0.89028447
  1        -1.02626052       -0.28787547       -0.29983831
  1         0.38442948       -0.72506730        0.74328819
  1        -0.01648462        1.01294277        0.44683459
  6-Bq        0.00000000       0.00000000       4.54351031
  1-Bq       -0.36058320       1.01995398       4.77943317
  1-Bq       -0.71375220      -0.74567160       4.94415681
  1-Bq        0.07995484      -0.11842908       3.44552682
  1-Bq        0.99438057      -0.15585330       5.00492443

@aug-cc-pVTZ.gbs/N

