%Chk=CH400312
%Mem=2GB
%NProcShared=16
#T M05/Gen test Massage Symmetry=None SCF=(tight,maxcyc=60)

M05 opt

0 1
  6         0.00000000        0.00000000        0.00000000
  1         1.06856018        0.00000000        0.29011222
  1        -0.48400707        0.92291831        0.37409210
  1        -0.08285703       -0.03897802       -1.10344976
  1        -0.50169608       -0.88394029        0.43924544
  6-Bq        0.00000000       0.00000000       3.39712750
  1-Bq       -0.11111342       0.02132355       4.49857430
  1-Bq       -0.99290828       0.12570830       2.92350684
  1-Bq        0.66820669       0.82302785       3.07757949
  1-Bq        0.43581501      -0.97005970       3.08884936

@aug-cc-pVTZ.gbs/N

