%Chk=CH400134
%Mem=2GB
%NProcShared=16
#T M05/Gen test Massage Symmetry=None SCF=(tight,maxcyc=60)

M05 opt

0 1
  6         0.00000000        0.00000000        0.00000000
  1         0.56386111        0.00000000       -0.95291479
  1         0.53640996        0.61753181        0.74626053
  1        -1.01039347        0.42014754       -0.16901784
  1        -0.08987759       -1.03767936        0.37567210
  6-Bq        0.00000000       0.00000000       2.39576009
  1-Bq       -0.86750955       0.37696339       1.82016324
  1-Bq        0.93180430       0.19911304       1.83177365
  1-Bq        0.04449778       0.51413648       3.37538735
  1-Bq       -0.10879253      -1.09021292       2.55571611

@aug-cc-pVTZ.gbs/N

