%Chk=CH400079
%Mem=2GB
%NProcShared=16
#T M05/Gen test Massage Symmetry=None SCF=(tight,maxcyc=60)

M05 opt

0 1
  6         0.00000000        0.00000000        0.00000000
  1         0.95870082        0.00000000       -0.55396633
  1        -0.30920164        1.04371264        0.20259376
  1        -0.77697212       -0.50391427       -0.60693549
  1         0.12747294       -0.53979837        0.95830805
  6-Bq        0.00000000       0.00000000       2.95138869
  1-Bq       -0.44695432       0.03869039       3.96367365
  1-Bq        0.57109570       0.92996386       2.76429812
  1-Bq        0.67989425      -0.87109106       2.88117381
  1-Bq       -0.80403563      -0.09756319       2.19640916

@aug-cc-pVTZ.gbs/N

