%Chk=CH400165
%Mem=2GB
%NProcShared=16
#T M05/Gen test Massage Symmetry=None SCF=(tight,maxcyc=60)

M05 opt

0 1
  6         0.00000000        0.00000000        0.00000000
  1         1.10491784        0.00000000        0.07171145
  1        -0.37033017       -1.04345026        0.00728517
  1        -0.42581973        0.54879241        0.86225889
  1        -0.30876793        0.49465785       -0.94125551
  6-Bq        0.00000000       0.00000000       3.27426464
  1-Bq        0.61539161      -0.91916064       3.32348700
  1-Bq       -0.18211389       0.37755648       4.29909223
  1-Bq        0.53466363       0.77108961       2.68643679
  1-Bq       -0.96794134      -0.22948545       2.78804253

@aug-cc-pVTZ.gbs/N

