%Chk=CH400297
%Mem=2GB
%NProcShared=16
#T M05/Gen test Massage Symmetry=None SCF=(tight,maxcyc=60)

M05 opt

0 1
  6         0.00000000        0.00000000        0.00000000
  1         0.26021086        0.00000000        1.07623244
  1         0.92631971        0.05905692       -0.60368040
  1        -0.54355288       -0.93214032       -0.24829546
  1        -0.64297769        0.87308341       -0.22425659
  6-Bq        0.00000000       0.00000000       3.82811193
  1-Bq        0.81616988      -0.04448448       3.08120242
  1-Bq       -0.97557810      -0.10761492       3.31561574
  1-Bq        0.12474046      -0.82103474       4.56045593
  1-Bq        0.03466776       0.97313414       4.35517364

@aug-cc-pVTZ.gbs/N

