%Chk=CH400286
%Mem=2GB
%NProcShared=16
#T M05/Gen test Massage Symmetry=None SCF=(tight,maxcyc=60)

M05 opt

0 1
  6         0.00000000        0.00000000        0.00000000
  1         0.29104164        0.00000000       -1.06830741
  1        -1.09990590       -0.09655840        0.08288210
  1         0.48511367       -0.85190485        0.51469292
  1         0.32375059        0.94846325        0.47073238
  6-Bq        0.00000000       0.00000000       3.74266174
  1-Bq       -1.09777247       0.14299021       3.76352706
  1-Bq        0.38561012       0.24947152       2.73516248
  1-Bq        0.47283043       0.66253353       4.49330590
  1-Bq        0.23933192      -1.05499527       3.97865151

@aug-cc-pVTZ.gbs/N

