%Chk=CH400091
%Mem=2GB
%NProcShared=16
#T M05/Gen test Massage Symmetry=None SCF=(tight,maxcyc=60)

M05 opt

0 1
  6         0.00000000        0.00000000        0.00000000
  1         1.03453630        0.00000000       -0.39461450
  1        -0.27509495        1.02540831        0.31439868
  1        -0.69620905       -0.34321279       -0.78960997
  1        -0.06323230       -0.68219552        0.86982579
  6-Bq        0.00000000       0.00000000       2.67543638
  1-Bq        0.07808400       0.55349819       3.63122328
  1-Bq       -0.94474945      -0.57721280       2.65931779
  1-Bq        0.00880665       0.71713452       1.83185681
  1-Bq        0.85785881      -0.69341991       2.57934763

@aug-cc-pVTZ.gbs/N

