%Chk=CH400278
%Mem=2GB
%NProcShared=16
#T M05/Gen test Massage Symmetry=None SCF=(tight,maxcyc=60)

M05 opt

0 1
  6         0.00000000        0.00000000        0.00000000
  1         1.07047800        0.00000000       -0.28295373
  1        -0.27770848        0.99695214        0.39363739
  1        -0.61702139       -0.23035520       -0.89006013
  1        -0.17574813       -0.76659693        0.77937648
  6-Bq        0.00000000       0.00000000       3.95066522
  1-Bq        0.84811354      -0.45348531       4.49933675
  1-Bq       -0.23198388      -0.61268881       3.05803884
  1-Bq       -0.88760213       0.04051837       4.61135174
  1-Bq        0.27147247       1.02565574       3.63393355

@aug-cc-pVTZ.gbs/N

