%Chk=CH400226
%Mem=2GB
%NProcShared=16
#T M05/Gen test Massage Symmetry=None SCF=(tight,maxcyc=60)

M05 opt

0 1
  6         0.00000000        0.00000000        0.00000000
  1         0.84569878        0.00000000        0.71468842
  1        -0.95428419        0.06797751        0.55741072
  1         0.09229151        0.86815218       -0.68101397
  1         0.01629390       -0.93612969       -0.59108516
  6-Bq        0.00000000       0.00000000       3.33492641
  1-Bq       -0.65131625       0.78546469       2.90502141
  1-Bq        0.06175259       0.13169578       4.43257335
  1-Bq       -0.42383804      -0.99698423       3.10608208
  1-Bq        1.01340170       0.07982375       2.89602880

@aug-cc-pVTZ.gbs/N

