%Chk=CH400290
%Mem=2GB
%NProcShared=16
#T M05/Gen test Massage Symmetry=None SCF=(tight,maxcyc=60)

M05 opt

0 1
  6         0.00000000        0.00000000        0.00000000
  1         0.92018283        0.00000000        0.61583237
  1        -0.41060180        1.02707612       -0.05006761
  1         0.23992215       -0.35179766       -1.02208695
  1        -0.74950318       -0.67527846        0.45632219
  6-Bq        0.00000000       0.00000000       3.76321352
  1-Bq        0.28555812      -1.03066341       4.04987614
  1-Bq        0.87294557       0.51408060       3.31636553
  1-Bq       -0.82420607      -0.03723619       3.02478020
  1-Bq       -0.33429761       0.55381900       4.66183223

@aug-cc-pVTZ.gbs/N

