%Chk=CH400093
%Mem=2GB
%NProcShared=16
#T M05/Gen test Massage Symmetry=None SCF=(tight,maxcyc=60)

M05 opt

0 1
  6         0.00000000        0.00000000        0.00000000
  1         0.86256202        0.00000000        0.69424255
  1        -0.81154689        0.62550861        0.41966246
  1         0.31414305        0.41104001       -0.97895159
  1        -0.36515818       -1.03654862       -0.13495343
  6-Bq        0.00000000       0.00000000       2.80901872
  1-Bq       -1.04282350       0.32589529       2.98873338
  1-Bq        0.20058862      -0.92708971       3.38020593
  1-Bq        0.14520850      -0.19348148       1.72852561
  1-Bq        0.69702638       0.79467590       3.13860997

@aug-cc-pVTZ.gbs/N

