%Chk=CH400136
%Mem=2GB
%NProcShared=16
#T M05/Gen test Massage Symmetry=None SCF=(tight,maxcyc=60)

M05 opt

0 1
  6         0.00000000        0.00000000        0.00000000
  1         0.93107063        0.00000000       -0.59924406
  1        -0.08473885        0.95706581        0.55030021
  1        -0.87173919       -0.11750278       -0.67249523
  1         0.02540741       -0.83956303        0.72143907
  6-Bq        0.00000000       0.00000000       3.36699565
  1-Bq        0.15199937      -0.85717387       2.68279165
  1-Bq       -0.33248882       0.88178417       2.78570929
  1-Bq       -0.77135469      -0.25934235       4.11782149
  1-Bq        0.95184414       0.23473205       3.88166016

@aug-cc-pVTZ.gbs/N

