%Chk=CH400307
%Mem=2GB
%NProcShared=16
#T M05/Gen test Massage Symmetry=None SCF=(tight,maxcyc=60)

M05 opt

0 1
  6         0.00000000        0.00000000        0.00000000
  1         0.61056656        0.00000000       -0.92368525
  1         0.63868607       -0.26556594        0.86460441
  1        -0.43276639        1.00709986        0.15636203
  1        -0.81648624       -0.74153391       -0.09728120
  6-Bq        0.00000000       0.00000000       3.84052424
  1-Bq        1.10108063      -0.11433090       3.81737589
  1-Bq       -0.36355252      -0.13680032       4.87739511
  1-Bq       -0.27356665       1.01194268       3.48398635
  1-Bq       -0.46396147      -0.76081146       3.18333962

@aug-cc-pVTZ.gbs/N

