%Chk=CH400201
%Mem=2GB
%NProcShared=16
#T M05/Gen test Massage Symmetry=None SCF=(tight,maxcyc=60)

M05 opt

0 1
  6         0.00000000        0.00000000        0.00000000
  1         1.10070398        0.00000000        0.12015284
  1        -0.46636595        0.49961934        0.87113103
  1        -0.27021625        0.54398461       -0.92576988
  1        -0.36412178       -1.04360395       -0.06551399
  6-Bq        0.00000000       0.00000000       3.23151100
  1-Bq       -0.40026830      -0.58033911       2.37770906
  1-Bq        1.09356534       0.12576412       3.11199453
  1-Bq       -0.48488325       0.99498491       3.26116275
  1-Bq       -0.20841379      -0.54040991       4.17517767

@aug-cc-pVTZ.gbs/N

