%Chk=CH400183
%Mem=2GB
%NProcShared=16
#T M05/Gen test Massage Symmetry=None SCF=(tight,maxcyc=60)

M05 opt

0 1
  6         0.00000000        0.00000000        0.00000000
  1         0.44712696        0.00000000        1.01294789
  1        -0.50265452       -0.96972165       -0.18156077
  1        -0.74052074        0.81960538       -0.07656386
  1         0.79604830        0.15011627       -0.75482327
  6-Bq        0.00000000       0.00000000       3.58747657
  1-Bq       -0.51169880       0.91376917       3.22806567
  1-Bq        0.76426402      -0.30985332       2.84864141
  1-Bq        0.48886705       0.20858472       4.55880936
  1-Bq       -0.74143226      -0.81250057       3.71438983

@aug-cc-pVTZ.gbs/N

